  52
  -79.2316102800000       0.201282426768646      !
 O         -1.9375266566       -0.0660391917        2.4720729751
 C         -2.9048847282        0.8402439831        1.9857434016
 C         -3.6187340305        0.3459923704        0.7504100781
 C         -5.0041111434        0.3035497508        0.7069531263
 C         -5.6703724077       -0.1763402887       -0.4079390792
 C         -4.9470012112       -0.6411044710       -1.4936461824
 C         -3.5662614587       -0.6105252880       -1.4621385834
 C         -2.8849765913       -0.1053393342       -0.3555451360
 C         -1.4165024680       -0.0546047796       -0.3744031946
 C         -0.7605165766        1.2105053097       -0.4285625601
 C         -1.4819697602        2.4018648160       -0.5293713189
 C         -0.8357279067        3.6397054234       -0.5291663693
 C          0.5365792284        3.6988952525       -0.4265591224
 C          1.2829651847        2.5208065307       -0.3611493784
 C          0.6629979460        1.2706588336       -0.3955371542
 C          1.4167750482        0.0586437556       -0.3729367391
 C          2.8850503105        0.1098859019       -0.3535020220
 C          3.5649995372        0.6273557159       -1.4554623403
 C          4.9455748709        0.6602191901       -1.4879799878
 C          5.6704916988        0.1851656757       -0.4077216791
 C          5.0057462311       -0.3072331351        0.7025447312
 C          3.6204360975       -0.3519848544        0.7471109965
 C          2.9102658034       -0.8616591613        1.9785299782
 O          1.9329418749        0.0299916382        2.4710486936
 C          0.7606609056       -1.2062925373       -0.4346466720
 C          1.4817578957       -2.3971975606       -0.5422782714
 C          0.8351967900       -3.6349314373       -0.5480376351
 C         -0.5370941855       -3.6944318794       -0.4456244838
 C         -1.2832997676       -2.5165712143       -0.3749078104
 C         -0.6628856036       -1.2664048637       -0.4024284143
 H         -1.3842367555       -0.2887619365        1.7084393920
 H         -2.4228294868        1.8037366388        1.7671215655
 H         -3.6188166451        0.9840662104        2.7986242295
 H         -5.5675233151        0.6456525083        1.5627973126
 H         -6.7491195371       -0.1965264867       -0.4238708630
 H         -5.4568403785       -1.0252427799       -2.3640951415
 H         -2.9939670513       -0.9587995165       -2.3096132394
 H         -2.5556104526        2.3607641005       -0.6148667156
 H         -1.4204657099        4.5440634111       -0.6002372008
 H          1.0442719424        4.6507764258       -0.4023054173
 H          2.3559602485        2.5747869749       -0.2830948354
 H          2.9914243796        0.9834037286       -2.2988329907
 H          5.4540680657        1.0541000719       -2.3548326094
 H          6.7491711087        0.2070851757       -0.4242435180
 H          5.5705037583       -0.6572883711        1.5542680721
 H          3.6251611019       -1.0037486878        2.7909754258
 H          2.4390350750       -1.8290450104        1.7529603819
 H          1.3773565319        0.2526012782        1.7088747407
 H          2.5552916130       -2.3558830524       -0.6288095552
 H          1.4197346074       -4.5390400264       -0.6236705907
 H         -1.0449198330       -4.6463809112       -0.4263524822
 H         -2.3563570587       -2.5704847605       -0.2977305060
  52
  -79.2316089100000       0.200990833631319      !
 O         -1.9383435073       -0.0575058517        2.4711743109
 C         -2.8790436344       -0.9858837771        1.9752959386
 C         -3.6059338765       -0.5026079219        0.7430203181
 C         -4.9918358836       -0.5139712871        0.6949013665
 C         -5.6733322704       -0.0460361241       -0.4157873384
 C         -4.9655632547        0.4607546961       -1.4930113705
 C         -3.5849137057        0.4838906855       -1.4569168188
 C         -2.8871174213       -0.0085364013       -0.3545686243
 C         -1.4179731940        0.0005179781       -0.3710082674
 C         -0.7149657416        1.2427831284       -0.3923399866
 C         -1.3861967402        2.4660781429       -0.3558071053
 C         -0.6893898808        3.6742289573       -0.4196316548
 C          0.6840971968        3.6722273865       -0.5234577556
 C          1.3811191696        2.4622696341       -0.5262478034
 C          0.7098316584        1.2418652960       -0.4262373180
 C          1.4177748623        0.0050840265       -0.3733698692
 C          2.8870983685        0.0138720891       -0.3571623877
 C          3.5855596015       -0.4647216764       -1.4649646900
 C          4.9663274091       -0.4416367970       -1.4991417296
 C          5.6731072580        0.0506330590       -0.4146238845
 C          4.9906991999        0.5047135488        0.7012748757
 C          3.6047876466        0.4939341411        0.7472163726
 C          2.8751306690        0.9619739456        1.9837003063
 O          1.9409254717        0.0224529301        2.4712542984
 C          0.7149159784       -1.2369822971       -0.3996097004
 C          1.3868070337       -2.4601740631       -0.3702665381
 C          0.6902584004       -3.6682165641       -0.4378700180
 C         -0.6833175037       -3.6660193296       -0.5404575748
 C         -1.3807228931       -2.4562229772       -0.5378542598
 C         -0.7098538791       -1.2361307081       -0.4317318359
 H         -1.3922845745        0.1899004633        1.7097415103
 H         -3.5897357151       -1.1570464905        2.7858464276
 H         -2.3697573890       -1.9338038957        1.7496893548
 H         -5.5440416285       -0.8890721296        1.5442227790
 H         -6.7519945965       -0.0672519934       -0.4347603644
 H         -5.4875057080        0.8367513601       -2.3598607237
 H         -3.0242270804        0.8652854876       -2.2978486221
 H         -2.4604290732        2.4754481648       -0.2767033220
 H         -1.2361357466        4.6041996976       -0.3935915026
 H          1.2307306502        4.6001922426       -0.5933702660
 H          2.4554505540        2.4658467463       -0.6129641671
 H          3.0255748129       -0.8346824273       -2.3114908823
 H          5.4891043201       -0.8060651522       -2.3703574565
 H          6.7518039790        0.0713247199       -0.4320286429
 H          5.5420287233        0.8687552843        1.5559537570
 H          2.3592333568        1.9080717814        1.7658500805
 H          3.5845259973        1.1309412408        2.7958266744
 H          1.3944595516       -0.2196335129        1.7084879540
 H          2.4612113336       -2.4692927712       -0.2935109784
 H          1.2372683750       -4.5981302773       -0.4163268169
 H         -1.2297935694       -4.5938114119       -0.6139381045
 H         -2.4549478157       -2.4597607216       -0.6253599249
  52
  -79.2312752600000       0.141202156037779      !
 O         -1.9947533974        0.2400925329        2.4620033377
 C         -2.9114647132       -0.7517860969        2.0512711617
 C         -3.6210889805       -0.4145691544        0.7615181333
 C         -5.0049956708       -0.4631479320        0.6864161930
 C         -5.6704774518       -0.1275398120       -0.4805267056
 C         -4.9492323675        0.2837375050       -1.5891170812
 C         -3.5706437544        0.3425448129       -1.5271029650
 C         -2.8879639681       -0.0196051742       -0.3662134409
 C         -1.4191855512        0.0157340964       -0.3586283360
 C         -0.7378760816        1.2638899278       -0.4873035627
 C         -1.4342676454        2.4720339994       -0.5483211411
 C         -0.7605527033        3.6912576773       -0.6385315486
 C          0.6164481075        3.7178839106       -0.6384899983
 C          1.3366957458        2.5256135391       -0.5479992949
 C          0.6874333988        1.2914683364       -0.4869881923
 C          1.4167898710        0.0707527849       -0.3582226629
 C          2.8859098127        0.0944885614       -0.3676665501
 C          3.5510934942        0.4805214348       -1.5309375560
 C          4.9308697901        0.4821104965       -1.5939402354
 C          5.6701906482        0.1082794204       -0.4839761312
 C          5.0209494657       -0.2520611988        0.6846508672
 C          3.6363226509       -0.2643484595        0.7606828609
 C          2.9436163366       -0.6288898991        2.0521775130
 O          1.9845670100        0.3226195570        2.4610569748
 C          0.7351640210       -1.1805778495       -0.2942275199
 C          1.4323599293       -2.3907688564       -0.2935998157
 C          0.7589328972       -3.6132637893       -0.2547345346
 C         -0.6181046263       -3.6400702322       -0.2564074565
 C         -1.3385371531       -2.4446988150       -0.2966444467
 C         -0.6890896286       -1.2082678676       -0.2952279907
 H         -1.4417120718        0.4168103132        1.6860526807
 H         -3.6354419357       -0.8487257779        2.8623767930
 H         -2.3831367562       -1.7094050634        1.9367659301
 H         -5.5686268320       -0.7622618538        1.5580619357
 H         -6.7477387163       -0.1764509839       -0.5198345447
 H         -5.4590855752        0.5568631265       -2.5005628231
 H         -2.9987861952        0.6488813662       -2.3908978838
 H         -2.5108901566        2.4610058105       -0.5166597118
 H         -1.3272520871        4.6078133445       -0.6948224293
 H          1.1474063412        4.6556118642       -0.6942118818
 H          2.4129307619        2.5561662336       -0.5161800935
 H          2.9657179891        0.7587436246       -2.3952186428
 H          5.4275210768        0.7732718440       -2.5070717394
 H          6.7485142130        0.1075337121       -0.5236009751
 H          5.5978249417       -0.5218350520        1.5572350811
 H          3.6717236104       -0.6920737340        2.8630315578
 H          2.4575152788       -1.6089750604        1.9404303401
 H          1.4232898334        0.4723981430        1.6852932763
 H          2.5089629827       -2.3779168342       -0.3396654012
 H          1.3257697597       -4.5315286087       -0.2355701942
 H         -1.1489235439       -4.5796624258       -0.2395272790
 H         -2.4146614167       -2.4739673353       -0.3457227849
  52
  -79.2307916800000       8.464539722209070E-002 !
 O         -2.1583375010        0.3362328198        2.4620505895
 C         -3.0306804504       -0.6878112476        2.0313508081
 C         -3.6775001654       -0.3926144665        0.6996069093
 C         -5.0554450096       -0.4441966609        0.5517974198
 C         -5.6557127868       -0.1410895461       -0.6587044415
 C         -4.8755746714        0.2421428689       -1.7369795757
 C         -3.5022282723        0.3044981912       -1.6018909447
 C         -2.8852579007       -0.0276129324       -0.3968348582
 C         -1.4174699141        0.0090697685       -0.3172523808
 C         -0.7383862007        1.2610004782       -0.4075529295
 C         -1.4391390496        2.4677865193       -0.4438011027
 C         -0.7675882515        3.6906328695       -0.4906163943
 C          0.6094628421        3.7206838771       -0.4793632954
 C          1.3331642672        2.5281564905       -0.4226581149
 C          0.6858124298        1.2920324690       -0.3980498944
 C          1.4173410960        0.0699665069       -0.3015952321
 C          2.8848888895        0.0925740718       -0.3827674622
 C          3.4790184668        0.4689674369       -1.5871187875
 C          4.8513778462        0.4500365257       -1.7395795390
 C          5.6550912177        0.0667904858       -0.6785132691
 C          5.0779266515       -0.2753548987        0.5324588369
 C          3.7006031106       -0.2662809140        0.6983028551
 C          3.0892078742       -0.6140305503        2.0348612238
 O          2.1196963109        0.3134678327        2.4698615938
 C          0.7378267001       -1.1821715099       -0.2249175031
 C          1.4358518459       -2.3914935391       -0.2126287460
 C          0.7639310812       -3.6144130668       -0.1538729848
 C         -0.6127876338       -3.6430723484       -0.1535497784
 C         -1.3346848009       -2.4492786628       -0.2146349998
 C         -0.6871136739       -1.2117911396       -0.2286825160
 H         -1.5861795117        0.5220892651        1.7022287070
 H         -3.7924966312       -0.7849339402        2.8070768709
 H         -2.4734150929       -1.6334126568        1.9656710146
 H         -5.6658392190       -0.7209047046        1.3990286686
 H         -6.7291437623       -0.1929742649       -0.7558812143
 H         -5.3350112558        0.4910411316       -2.6815278354
 H         -2.8838916298        0.5924737790       -2.4396945563
 H         -2.5162639027        2.4515329874       -0.4267958125
 H         -1.3360926975        4.6072049574       -0.5242934979
 H          1.1376261492        4.6613453546       -0.5037544066
 H          2.4095345657        2.5590657645       -0.3882534844
 H          2.8421491753        0.7524112239       -2.4124238393
 H          5.2915619162        0.7285388160       -2.6848587346
 H          6.7280464180        0.0441944497       -0.7899833901
 H          5.7062414785       -0.5503525849        1.3671756925
 H          3.8618792527       -0.6297111661        2.8060072682
 H          2.6341442186       -1.6143487798        1.9776062960
 H          1.5295245358        0.4442867828        1.7114725886
 H          2.5119222999       -2.3793223164       -0.2659239250
 H          1.3323270128       -4.5313938978       -0.1226204454
 H         -1.1424316053       -4.5829096717       -0.1212736798
 H         -2.4105348564       -2.4811576677       -0.2673846456
  52
  -79.2305603600000       6.626680560116364E-002 !
 O         -2.2542488383       -1.8017485466        2.2413584708
 C         -2.6459676410       -0.4490704014        2.1105074899
 C         -3.4859342453       -0.1979778399        0.8801269104
 C         -4.8711703657       -0.2140234863        0.9478005456
 C         -5.6400600481        0.0279221815       -0.1776830425
 C         -5.0236505042        0.3019515879       -1.3870056834
 C         -3.6434600874        0.3213668380       -1.4682487394
 C         -2.8634027184        0.0604354518       -0.3456549303
 C         -1.3939069908        0.0643006257       -0.4463676017
 C         -0.6892753536        1.2975841792       -0.4967581595
 C         -1.3567256556        2.5242645106       -0.5150005092
 C         -0.6523045065        3.7261627049       -0.6092108767
 C          0.7223128117        3.7140127689       -0.6944274582
 C          1.4143413148        2.5006565450       -0.6512622825
 C          0.7358999269        1.2878322876       -0.5226807472
 C          1.4350997101        0.0469061239       -0.4240472043
 C          2.9010251934        0.0496763321       -0.3400019012
 C          3.6522083368       -0.4705529211       -1.3934445928
 C          5.0329572563       -0.4543390275       -1.3578506162
 C          5.6862308670        0.0720079566       -0.2559797343
 C          4.9506179693        0.5672075770        0.8076068382
 C          3.5641446590        0.5644058686        0.7835328921
 C          2.7793788329        1.0851081796        1.9644256021
 O          1.7876547582        0.1928735551        2.4252937320
 C          0.7247870256       -1.1915062234       -0.4441626547
 C          1.3785713623       -2.4216816469       -0.3701051253
 C          0.6660170967       -3.6235549522       -0.4134440587
 C         -0.7054988913       -3.6095905235       -0.5297952196
 C         -1.3888248403       -2.3906734952       -0.5662901277
 C         -0.6995417837       -1.1746249296       -0.4929099224
 H         -1.8130050789       -2.0276554731        1.4069489084
 H         -1.7527364746        0.1880815873        2.0761043692
 H         -3.2159634343       -0.2166700696        3.0123838591
 H         -5.3478879030       -0.4158517289        1.8957261701
 H         -6.7169357770        0.0099135270       -0.1089033261
 H         -5.6164428708        0.5002328155       -2.2671957796
 H         -3.1544020986        0.5305237917       -2.4088382861
 H         -2.4333285910        2.5364889944       -0.4592544517
 H         -1.1939329554        4.6594192993       -0.6226015545
 H          1.2748413605        4.6365525107       -0.7864158877
 H          2.4902623098        2.4973827744       -0.7243078372
 H          3.1337381047       -0.8661017916       -2.2547287391
 H          5.5973223964       -0.8499393688       -2.1886109322
 H          6.7645268251        0.0891261534       -0.2196209251
 H          5.4604865664        0.9595173525        1.6757490718
 H          2.3100446226        2.0429498678        1.6930853010
 H          3.4475403417        1.2546219866        2.8113260399
 H          1.2870606630       -0.0743123021        1.6392929538
 H          2.4511079430       -2.4444123171       -0.2741674203
 H          1.2015509337       -4.5586870317       -0.3601965264
 H         -1.2626522868       -4.5320603246       -0.5826243324
 H         -2.4622252538       -2.3823802483       -0.6661988837
  52
  -79.2305575700000       6.607145041782723E-002 !
 O         -1.7310468687        0.1348151016        2.4151028631
 C         -2.7769697356        0.9721445030        1.9718816418
 C         -3.5604828701        0.4085239349        0.8098085014
 C         -4.9445322506        0.3432442551        0.8658127942
 C         -5.6792421073       -0.1885570534       -0.1804092116
 C         -5.0265602582       -0.6816535628       -1.2979681717
 C         -3.6478256318       -0.6302828207       -1.3653798929
 C         -2.8988652555       -0.0749901005       -0.3284915861
 C         -1.4359887448       -0.0118084620       -0.4401120204
 C         -0.7951135115        1.2592189784       -0.5520761895
 C         -1.5308585090        2.4376438029       -0.6852614749
 C         -0.8971550320        3.6815710761       -0.7417186542
 C          0.4757809332        3.7588250157       -0.6610278159
 C          1.2362783621        2.5926381048       -0.5572488292
 C          0.6280636190        1.3358549107       -0.5295151716
 C          1.3886768240        0.1361237903       -0.4653185840
 C          2.8531563167        0.1979699411       -0.3319410087
 C          3.6468358973        0.5408254803       -1.4230142029
 C          5.0238711851        0.5839710913       -1.3070450950
 C          5.6240219767        0.2921898544       -0.0936212865
 C          4.8409509221       -0.0301519263        1.0015067454
 C          3.4587257895       -0.0779104313        0.8990415320
 C          2.6058345893       -0.4107978796        2.1013049455
 O          2.3152628620       -1.7912287386        2.2042917757
 C          0.7514822256       -1.1333066335       -0.5215493535
 C          1.4957794562       -2.3152674403       -0.6093812310
 C          0.8695418945       -3.5651662826       -0.5825653327
 C         -0.4991867452       -3.6434357632       -0.4594359060
 C         -1.2661916667       -2.4763044204       -0.4025972649
 C         -0.6703457241       -1.2165798330       -0.4701168383
 H         -1.2379863511       -0.1163315505        1.6195369902
 H         -2.3637792624        1.9521873982        1.6872926833
 H         -3.4347567443        1.1115897205        2.8322128709
 H         -5.4528589896        0.7092703487        1.7459492161
 H         -6.7558879513       -0.2256841934       -0.1185818417
 H         -5.5900628561       -1.1040969007       -2.1160864868
 H         -3.1306307284       -0.9989731693       -2.2392776892
 H         -2.6059709033        2.3826927366       -0.7504604433
 H         -1.4925955092        4.5764164820       -0.8390663304
 H          0.9729413847        4.7163975856       -0.6837269610
 H          2.3109285042        2.6572582011       -0.5013350846
 H          3.1712865679        0.7619782589       -2.3677356506
 H          5.6272765285        0.8451948484       -2.1632847334
 H          6.6984500052        0.3237776829        0.0024309880
 H          5.3036412066       -0.2449555433        1.9534911531
 H          1.6681786564        0.1573462209        2.0505886883
 H          3.1322723383       -0.1495573701        3.0217315263
 H          1.8997847101       -2.0323512689        1.3604635431
 H          2.5670142670       -2.2560673515       -0.7157583264
 H          1.4685139195       -4.4603420505       -0.6464552358
 H         -0.9907042094       -4.6027031878       -0.4114896387
 H         -2.3359720756       -2.5497197925       -0.3017015130
  52
  -79.2305149800000       6.315981246888731E-002 !
 O         -1.8262075033       -0.6155011427        2.4485546829
 C         -2.6259369655        0.4913342110        2.0796653980
 C         -3.4850720569        0.2103399314        0.8705961129
 C         -4.8677420419        0.1811914667        0.9663443017
 C         -5.6508217434       -0.1080506121       -0.1382441824
 C         -5.0503567148       -0.3856225270       -1.3542258183
 C         -3.6716305296       -0.3672880318       -1.4621014532
 C         -2.8776169824       -0.0628169490       -0.3611229295
 C         -1.4095222477       -0.0254741682       -0.4838208435
 C         -0.7505817033        1.2326870951       -0.5647988455
 C         -1.4721176276        2.4257244257       -0.6451413106
 C         -0.8207567810        3.6595174852       -0.7085900232
 C          0.5549506155        3.7127262542       -0.6794671948
 C          1.2997409518        2.5333000714       -0.5968796587
 C          0.6745255708        1.2863056816       -0.5626736477
 C          1.4184541390        0.0711577689       -0.4693121295
 C          2.8824988804        0.1116561844       -0.3450512194
 C          3.6628617381        0.5380259007       -1.4180098922
 C          5.0415353569        0.5648676881       -1.3264722458
 C          5.6612956167        0.1763762216       -0.1507327751
 C          4.8946810939       -0.2294840131        0.9284539864
 C          3.5111376276       -0.2695018762        0.8490068124
 C          2.6874147293       -0.6854958825        2.0449835460
 O          1.7312302865        0.2798941586        2.4294556926
 C          0.7564803747       -1.1913712379       -0.5063296706
 C          1.4710301192       -2.3892243172       -0.5558366047
 C          0.8132831812       -3.6223314926       -0.5706469292
 C         -0.5625955799       -3.6703919579       -0.5356579505
 C         -1.3019970299       -2.4862756594       -0.5026806704
 C         -0.6681405617       -1.2410658577       -0.5070769916
 H         -1.3327133088       -0.8616153283        1.6542850366
 H         -1.9818637715        1.3575874547        1.8786239263
 H         -3.2510047188        0.7100177697        2.9469217547
 H         -5.3335850004        0.3852833700        1.9192820545
 H         -6.7260583994       -0.1218997642       -0.0471036859
 H         -5.6541493514       -0.6168649588       -2.2186665242
 H         -3.1954053402       -0.5793510585       -2.4085147260
 H         -2.5495469859        2.3867647158       -0.6567423378
 H         -1.4039070267        4.5652850081       -0.7725616308
 H          1.0678771026        4.6614542112       -0.7151623989
 H          2.3749941230        2.5855847242       -0.5553616822
 H          3.1722192738        0.8291156237       -2.3354937485
 H          5.6305779555        0.8896450799       -2.1707556468
 H          6.7371011617        0.1975769478       -0.0694814929
 H          5.3763509262       -0.5156961852        1.8520906722
 H          3.3339214615       -0.8267365178        2.9128508340
 H          2.1808431203       -1.6359208180        1.8262702527
 H          1.2071964992        0.4620795115        1.6360263956
 H          2.5481400805       -2.3582791834       -0.5869892131
 H          1.3929909987       -4.5319658652       -0.6041017720
 H         -1.0783406948       -4.6182011067       -0.5349888769
 H         -2.3784007205       -2.5277868367       -0.4734921234
  52
  -79.2304210800000       5.718569185090962E-002 !
 O         -2.1615140421       -1.4964370190        2.3942769863
 C         -2.6015861452       -0.1769128813        2.1379153494
 C         -3.4641581635       -0.0786841969        0.9014033927
 C         -4.8476670370       -0.1071163400        0.9934055943
 C         -5.6368122628       -0.0121284208       -0.1400172535
 C         -5.0428963040        0.1224559641       -1.3835604549
 C         -3.6645067725        0.1550382476       -1.4891428957
 C         -2.8639912249        0.0449071181       -0.3562581616
 C         -1.3958505747        0.0690162901       -0.4761998994
 C         -0.7196528577        1.3074106243       -0.6507228822
 C         -1.4205711881        2.5081187768       -0.7816957746
 C         -0.7491874802        3.7247333639       -0.9162516366
 C          0.6273147922        3.7558573372       -0.8944482314
 C          1.3515159701        2.5707790856       -0.7420084501
 C          0.7068671373        1.3376842501       -0.6411625750
 C          1.4324364297        0.1211341616       -0.4508826330
 C          2.8966084473        0.1457352024       -0.3464133724
 C          3.6609242759        0.5242810327       -1.4498895534
 C          5.0409000615        0.5305640532       -1.3909847404
 C          5.6804673426        0.1697485969       -0.2166751136
 C          4.9316303626       -0.1848894046        0.8926111837
 C          3.5456741510       -0.2030755406        0.8471553073
 C          2.7508666423       -0.5733193087        2.0779539850
 O          1.7278461033        0.3449326781        2.3958295991
 C          0.7497302316       -1.1312515681       -0.3925603203
 C          1.4403391973       -2.3433135274       -0.3535140069
 C          0.7584386098       -3.5623056097       -0.2933835202
 C         -0.6181403810       -3.5843511732       -0.2998999588
 C         -1.3342649822       -2.3867152690       -0.3712301635
 C         -0.6738764198       -1.1527184705       -0.4067018998
 H         -1.7245149600       -1.7884084102        1.5786817759
 H         -1.7317425149        0.4838774745        2.0276131253
 H         -3.1684443863        0.1244254740        3.0211294018
 H         -5.3069693348       -0.2018849103        1.9663027345
 H         -6.7121297881       -0.0363793725       -0.0518546485
 H         -5.6518596027        0.2032978658       -2.2713568850
 H         -3.1932145109        0.2574904095       -2.4560314727
 H         -2.4984809766        2.4888733872       -0.7746434583
 H         -1.3173895708        4.6357763857       -1.0254889735
 H          1.1566461694        4.6920316434       -0.9831256860
 H          2.4271421224        2.6098663052       -0.6913293604
 H          3.1535975358        0.7884178646       -2.3663565896
 H          5.6154087086        0.8152740568       -2.2593665231
 H          6.7580685844        0.1731120691       -0.1607368790
 H          5.4305149975       -0.4467907312        1.8143876524
 H          3.4080025817       -0.6027289970        2.9491703160
 H          2.3126767079       -1.5725102491        1.9381438384
 H          1.2104666753        0.4504572550        1.5829881760
 H          2.5177234516       -2.3373866786       -0.3799197659
 H          1.3206691948       -4.4823542459       -0.2486026829
 H         -1.1526922738       -4.5208339181       -0.2601160575
 H         -2.4109891606       -2.4101325970       -0.4197432643
  52
  -79.2304172100000       5.695198307328089E-002 !
 O         -1.7510986186       -0.3587096462        2.3970154157
 C         -2.7732053250        0.5603726292        2.0787318805
 C         -3.5572647901        0.1985140644        0.8388247620
 C         -4.9435416302        0.1756431667        0.8728331687
 C         -5.6822050304       -0.1731947065       -0.2452258532
 C         -5.0320604514       -0.5216823073       -1.4175845247
 C         -3.6517474032       -0.5100983539       -1.4651835404
 C         -2.8976046973       -0.1389715193       -0.3520873533
 C         -1.4324383099       -0.1138074312       -0.4450720225
 C         -0.7486177087        1.1371413520       -0.3755764175
 C         -1.4381130000        2.3494792077       -0.3277980064
 C         -0.7551325638        3.5673060184       -0.2549663484
 C          0.6214093487        3.5879235222       -0.2581404869
 C          1.3365363918        2.3903912486       -0.3399856036
 C          0.6751865803        1.1573193755       -0.3878792258
 C          1.3961567014       -0.0642232222       -0.4687797604
 C          2.8654956541       -0.0409500567       -0.3613632744
 C          3.6545933368       -0.1340385540       -1.5036068364
 C          5.0339354396       -0.1004539326       -1.4115225974
 C          5.6400622924        0.0191843029       -0.1724408122
 C          4.8622807210        0.0968730178        0.9701677131
 C          3.4779892227        0.0659356332        0.8917558688
 C          2.6271591347        0.1425375905        2.1377087090
 O          2.1747919218        1.4544836834        2.4121295592
 C          0.7188444008       -1.3015271108       -0.6458006298
 C          1.4188885674       -2.5024292381       -0.7800797249
 C          0.7464653074       -3.7182820301       -0.9172037128
 C         -0.6300560223       -3.7481660273       -0.8959974319
 C         -1.3533711058       -2.5627695518       -0.7414950230
 C         -0.7076591521       -1.3304863154       -0.6369234662
 H         -1.2299098241       -0.4602280398        1.5859209464
 H         -2.3353252230        1.5612458450        1.9501327600
 H         -3.4373344306        0.5822402872        2.9449976683
 H         -5.4506741901        0.4282029556        1.7927207942
 H         -6.7601960431       -0.1817099926       -0.1979216630
 H         -5.5987722666       -0.8016871885       -2.2927415306
 H         -3.1358514378       -0.7664594112       -2.3794640978
 H         -2.5154126524        2.3448124075       -0.3574433938
 H         -1.3164259181        4.4875399750       -0.2032258898
 H          1.1567590452        4.5234717199       -0.2083838196
 H          2.4133536645        2.4135512745       -0.3862377167
 H          3.1734471679       -0.2244443094       -2.4668415355
 H          5.6339138064       -0.1680615974       -2.3063486054
 H          6.7161026265        0.0454659893       -0.0946212772
 H          5.3316463028        0.1794698292        1.9393928244
 H          3.2059873057       -0.1614193410        3.0120788532
 H          1.7633889056       -0.5266251035        2.0290901835
 H          1.7303865122        1.7516511775        1.6026369069
 H          2.4968373421       -2.4837971886       -0.7730189966
 H          1.3138517659       -4.6295856418       -1.0275405672
 H         -1.1602098179       -4.6836462575       -0.9864775245
 H         -2.4291227672       -2.6009664597       -0.6925865942
  52
  -79.2303690500000       5.412227545378361E-002 !
 O         -1.8117919501       -0.2886902670        2.4141195457
 C         -2.8159360676        0.6329943791        2.0484926377
 C         -3.5781536260        0.2390971179        0.8047921249
 C         -4.9647321332        0.2155873786        0.8135514054
 C         -5.6819132166       -0.1680226474       -0.3069979690
 C         -5.0092782164       -0.5545733166       -1.4542888123
 C         -3.6282427443       -0.5422006977       -1.4765526030
 C         -2.8956719162       -0.1324624106       -0.3627631206
 C         -1.4294869047       -0.0995171192       -0.4339050384
 C         -0.7555852594        1.1580441290       -0.3883727830
 C         -1.4542301376        2.3657480090       -0.3728277782
 C         -0.7813976075        3.5896438625       -0.3013644675
 C          0.5945866109        3.6200794397       -0.2633894623
 C          1.3196607275        2.4276398188       -0.3152194887
 C          0.6688448755        1.1903445619       -0.3828090381
 C          1.3988940989       -0.0262074518       -0.4530319955
 C          2.8726671923        0.0038154385       -0.3814372324
 C          3.6289063225        0.0875089791       -1.5452298451
 C          5.0108097227        0.1056761050       -1.4866805939
 C          5.6503026517        0.0379760508       -0.2608227276
 C          4.9041061182       -0.0456050071        0.9023179936
 C          3.5182378603       -0.0649412875        0.8571383915
 C          2.6934133396       -0.1317259931        2.1193155920
 O          2.1202529697        1.1184778886        2.4542594671
 C          0.7321790027       -1.2737724209       -0.5847257602
 C          1.4451140260       -2.4700413132       -0.6923926250
 C          0.7846037237       -3.6965486189       -0.7877431956
 C         -0.5913465053       -3.7397084534       -0.7584437781
 C         -1.3271368778       -2.5571138685       -0.6414541618
 C         -0.6935703029       -1.3160859388       -0.5760985713
 H         -1.2709918405       -0.4133697498        1.6196832003
 H         -2.3633185854        1.6239313460        1.8987018512
 H         -3.4966439250        0.6881042981        2.9000139840
 H         -5.4892476585        0.4957793934        1.7155134264
 H         -6.7606067279       -0.1744385380       -0.2801704389
 H         -5.5588696172       -0.8629447974       -2.3306066116
 H         -3.0951828044       -0.8267616973       -2.3721150638
 H         -2.5306598895        2.3529816865       -0.4249252655
 H         -1.3506138906        4.5061669041       -0.2763593651
 H          1.1215962974        4.5597135197       -0.2033632880
 H          2.3973416952        2.4552033761       -0.3086514407
 H          3.1217292196        0.1376703088       -2.4980153562
 H          5.5862723520        0.1706122336       -2.3976346006
 H          6.7281667978        0.0501617455       -0.2094576856
 H          5.3999873911       -0.0978728096        1.8603960178
 H          3.3161475512       -0.4132972925        2.9702622115
 H          1.8962468605       -0.8769259979        1.9960100690
 H          1.6631213942        1.4205676115        1.6561988533
 H          2.5228924563       -2.4382282709       -0.6963878629
 H          1.3607660819       -4.6048152774       -0.8748316442
 H         -1.1119646375       -4.6830204661       -0.8177882421
 H         -2.4024603666       -2.6042765121       -0.5931276233
  52
  -79.2285765900000       8.121167474313642E-003 !
 O         -2.0121089576       -1.5260973907        2.2703514732
 C         -2.5621570438       -0.2315573951        2.1146995538
 C         -3.4561817816       -0.1203294236        0.9034460089
 C         -4.8373995736       -0.1320265719        1.0248798391
 C         -5.6480396708       -0.0354521448       -0.0932882828
 C         -5.0788113742        0.0766602913       -1.3501168548
 C         -3.7020907699        0.0864934455       -1.4854353451
 C         -2.8818246043       -0.0164807404       -0.3678344342
 C         -1.4135491054       -0.0076672920       -0.5088691640
 C         -0.7174179251        1.2307120527       -0.5199121748
 C         -1.3897301461        2.4534320552       -0.4826256965
 C         -0.6881505641        3.6631335890       -0.5036651607
 C          0.6867959102        3.6629416696       -0.5650818849
 C          1.3857897569        2.4511927446       -0.5867953482
 C          0.7078726338        1.2278531287       -0.5491474528
 C          1.4093003915       -0.0079035096       -0.5105399488
 C          2.8759758776       -0.0017949735       -0.3629021689
 C          3.7001936062       -0.1652012111       -1.4710137478
 C          5.0762318572       -0.1559491849       -1.3313619686
 C          5.6419735483        0.0126447338       -0.0792024993
 C          4.8278078674        0.1635584123        1.0303595152
 C          3.4468953615        0.1552702629        0.9045605774
 C          2.5524430233        0.3138838592        2.1110032438
 O          2.0781297906        1.6371587771        2.2714837866
 C          0.7130096803       -1.2458599740       -0.5642659805
 C          1.3842611713       -2.4693637190       -0.5627984709
 C          0.6819261288       -3.6776975726       -0.6123947485
 C         -0.6937647422       -3.6757534213       -0.6590217545
 C         -1.3917038378       -2.4643594066       -0.6415840268
 C         -0.7127675472       -1.2423357686       -0.5852411570
 H         -1.6209432520       -1.7561418284        1.4144306672
 H         -1.7495183520        0.5032626017        2.0339634624
 H         -3.1282744344       -0.0362894555        3.0276017008
 H         -5.2784973210       -0.2164741539        2.0071170161
 H         -6.7216556953       -0.0455887744        0.0173436477
 H         -5.7051581317        0.1567678592       -2.2258569254
 H         -3.2492415813        0.1738076225       -2.4625759258
 H         -2.4669925553        2.4588662316       -0.4361063374
 H         -1.2348365377        4.5930094986       -0.4754876524
 H          1.2359140428        4.5912857753       -0.5920021728
 H          2.4630213291        2.4559609053       -0.6405716600
 H          3.2503918685       -0.2949255713       -2.4448218333
 H          5.7049141218       -0.2815312510       -2.1995067161
 H          6.7151671348        0.0205090930        0.0351542683
 H          5.2654381725        0.2867071963        2.0100600895
 H          3.1015270855        0.0817358561        3.0258538862
 H          1.6993148607       -0.3723845392        2.0218477841
 H          1.6850254136        1.8844086316        1.4199951490
 H          2.4615960300       -2.4771497974       -0.5217238977
 H          1.2284243096       -4.6079761568       -0.6140013538
 H         -1.2434580019       -4.6031261201       -0.7028341866
 H         -2.4697604034       -2.4669251943       -0.6711001994
