  61
        -95.51040606
 C          2.5290085033        3.5948023281        1.4880230282
 C          1.2458447779        3.6702887154        0.9755293437
 C          0.7132456568        2.5947187007        0.2716765837
 C         -0.6625187042        2.6035749702       -0.2485864489
 C         -1.1854837175        3.6898057416       -0.9431480506
 C         -2.4685402916        3.6303273875       -1.4579738499
 C         -3.2465416986        2.4981730340       -1.2929367856
 C         -2.7435265333        1.4173647316       -0.5739697952
 N         -3.5035053563        0.2563017275       -0.3794873788
 C         -4.8204269850        0.1918840965        0.0423065776
 C         -5.6963773070        1.2172521254        0.3699266818
 C         -6.9666516743        0.8715812157        0.7897391369
 C         -7.3655106214       -0.4598190209        0.8951334605
 C         -6.4918789940       -1.4859641183        0.5998851746
 C         -5.2099403927       -1.1606954423        0.1756106992
 C         -4.0633416111       -1.9488690594       -0.1755645935
 N         -3.9159499891       -3.2649223307       -0.2072772128
 C         -2.7339366270       -3.7163541941       -0.5804603764
 C         -1.6685158567       -2.9020842661       -0.9638606295
 C         -1.8088512772       -1.5248206918       -0.9426744515
 C         -3.0310260553       -1.0319020692       -0.5104196564
 C         -1.4579344659        1.4812690157       -0.0519526484
 C          1.4979278336        1.4669148156        0.0647652866
 C          2.7831823675        1.3854161539        0.5859243870
 N          3.5350296102        0.2231357045        0.3793766293
 C          4.8440824649        0.1632101728       -0.0600848745
 C          5.7150861462        1.1899205937       -0.3952805726
 C          6.9794540193        0.8472165610       -0.8350636610
 C          7.3742158975       -0.4834475449       -0.9516690035
 C          6.5025078239       -1.5100113864       -0.6489382873
 C          5.2260205420       -1.1902318761       -0.2058827653
 C          4.0838879450       -1.9800883267        0.1604566472
 C          3.8493710114       -3.3476304717        0.2190324225
 C          2.6091933085       -3.7899407186        0.6338697281
 C          1.6180238833       -2.8874092064        1.0125451034
 C          1.8307803322       -1.5229756317        0.9667342333
 C          3.0621272948       -1.0696285710        0.5139387401
 C          3.2962008664        2.4570494318        1.3121987336
 H          2.9321925541        4.4262140192        2.0471443114
 H          0.6445004505        4.5513226277        1.1418936055
 H         -0.5764892248        4.5671793374       -1.1005863514
 H         -2.8634346945        4.4699032292       -2.0106714147
 H         -4.2312142360        2.4415815092       -1.7306170315
 H         -5.3959164119        2.2524753592        0.3154490698
 H         -7.6659930296        1.6538066729        1.0461832811
 H         -8.3690380256       -0.6846133415        1.2239845121
 H         -6.7776872299       -2.5213422309        0.6957095343
 H         -2.6309861244       -4.7931783534       -0.5895797012
 H         -0.7375030653       -3.3460316026       -1.2811653493
 H         -1.0055019275       -0.8769914571       -1.2621188808
 H         -1.0856729708        0.6586556204        0.5398108214
 H          1.1184569262        0.6520493992       -0.5330487668
 H          5.4149442118        2.2247909231       -0.3315579653
 H          7.6759986511        1.6296964524       -1.0980439987
 H          8.3727767046       -0.7097680730       -1.2946920090
 H          6.8002301146       -2.5420314277       -0.7576171008
 H          4.6257173351       -4.0465677498       -0.0534700875
 H          2.4034785644       -4.8490862851        0.6787293661
 H          0.6626278536       -3.2603108644        1.3519586910
 H          1.0634245802       -0.8369149798        1.2920145482
 H          4.2817778783        2.3886968186        1.7463082850
