  75
       -109.11674450
 C          5.1662594985        1.3832955976       -1.1483055211
 C          3.8348127165        1.2583735355       -0.3851531981
 C          3.7264987331        2.3594561423        0.6851205174
 C          3.7909292921       -0.0889139830        0.3059565613
 C          4.7423112128       -0.3940858479        1.2696536098
 C          4.7358034476       -1.5964470174        1.9518601655
 C          3.7474861591       -2.5268708557        1.6768263818
 C          2.7937042659       -2.2517366649        0.7223279857
 C          2.8050400281       -1.0414110962        0.0198331676
 N          1.8412814079       -0.8011207968       -0.9405870225
 C          0.7525774210       -1.6972538453       -1.0620189158
 C          0.8177340204       -2.8831296430       -1.7634840187
 C         -0.3069143953       -3.7079147534       -1.8049656261
 C         -1.4812736766       -3.3468369845       -1.1060341103
 C         -2.6295028723       -4.1383631502       -0.9995537143
 C         -3.7193629379       -3.7221641604       -0.2309538535
 C         -3.7070136617       -2.5056607753        0.4127725189
 C         -2.5888649876       -1.6650400942        0.3003181482
 N         -2.5293210779       -0.3568746402        0.8270886988
 C         -1.3947296934       -0.0478453512        1.5475136267
 C         -0.6861299438       -1.0896207228        2.1764001805
 C          0.5042396247       -0.8507629588        2.8206201611
 C          1.0103278240        0.4390181308        2.8739825612
 C          0.2777983197        1.4799996431        2.3300856125
 C         -0.9286874402        1.2672745033        1.6794496183
 C         -1.7025519005        2.4392604351        1.1254006371
 C         -2.0112334566        3.4146279488        2.2766842529
 C         -0.8393053930        3.1301674889        0.0527113844
 C         -2.9978656024        2.0002790308        0.4775326333
 C         -3.8622265868        2.9643885221       -0.0247343669
 C         -5.0235112980        2.6317210529       -0.6959383512
 C         -5.3199317167        1.2962391202       -0.9120161953
 C         -4.4777239940        0.3195763087       -0.4285368813
 C         -3.3279831435        0.6483014188        0.3009340783
 C         -1.4433819607       -2.0971229125       -0.4175942627
 N         -0.3618517242       -1.3287865528       -0.4094955782
 C          1.7571689031        0.4113374706       -1.5943485607
 C          0.7287109785        0.6179869350       -2.5219466244
 C          0.6159996553        1.8115265697       -3.2009041911
 C          1.5362876072        2.8218269260       -2.9750135548
 C          2.5603595337        2.6164175188       -2.0683981323
 C          2.6938758617        1.4268461525       -1.3663717619
 H          5.2396710367        2.3479209767       -1.6427832845
 H          5.2341196635        0.6036224228       -1.9044538341
 H          6.0103918288        1.2798556127       -0.4722654184
 H          3.7470737496        3.3459036135        0.2307194452
 H          2.7905427526        2.2428801598        1.2254277194
 H          4.5469232886        2.2953331191        1.3940635509
 H          5.5137942162        0.3248641918        1.5008359609
 H          5.4920224967       -1.8023754829        2.6938985975
 H          3.7203334569       -3.4677210900        2.2060911287
 H          2.0200680422       -2.9726729989        0.5131441204
 H          1.7293625185       -3.1554523850       -2.2732855693
 H         -0.2882767363       -4.6253055041       -2.3715665715
 H         -2.6437068681       -5.1075771990       -1.4746241635
 H         -4.5742524108       -4.3737455612       -0.1292929358
 H         -4.5295796436       -2.2058335624        1.0451689839
 H         -1.0929853524       -2.0877157953        2.1459428593
 H          1.0460644399       -1.6657561338        3.2752688410
 H          1.9581076125        0.6325459360        3.3531944707
 H          0.6630423708        2.4848439153        2.4141729003
 H         -1.0982721078        3.7227811411        2.7774713164
 H         -2.6577053724        2.9328257717        3.0077136989
 H         -2.5109839957        4.3059148092        1.9094849792
 H          0.0818981101        3.5091784230        0.4854189620
 H         -1.3754222087        3.9605262162       -0.3982377256
 H         -0.5819660711        2.4188451809       -0.7281811502
 H         -3.6203100126        4.0086891397        0.0991049714
 H         -5.6776057946        3.4065696951       -1.0650831075
 H         -6.2043154196        1.0144355043       -1.4631080120
 H         -4.7005039846       -0.7147352668       -0.6274269732
 H          0.0188612590       -0.1719683396       -2.7061883876
 H         -0.1870543629        1.9513889833       -3.9091260769
 H          1.4614229222        3.7592903211       -3.5042987706
 H          3.2746999942        3.4101390036       -1.9108928362
