75
 energy: -109.155038097338 gnorm: 0.000052803968 xtb: 6.7.1 (edcfbbe)
C            5.23986078950259        1.22732850771103       -1.70263717476583
C            4.09924732331195        1.11871157972016       -0.67215214964590
C            4.28547161631191        2.16704679921823        0.44200808018130
C            4.13237643643221       -0.25880402041103       -0.04261810499304
C            5.26049076319136       -0.65879426811443        0.66179909484831
C            5.33118763477747       -1.88110275613811        1.30372879576892
C            4.23508326072738       -2.72779332272219        1.27008771198799
C            3.10667410598180       -2.36000178924323        0.57112804921597
C            3.04508806655671       -1.14125039430264       -0.11686268073936
N            1.91245321498813       -0.81666206488506       -0.84410567133437
C            0.82496376062493       -1.71832647571093       -0.89152661149919
C            0.90854782233013       -2.93625185820461       -1.53504359381357
C           -0.20563041846489       -3.77453093228921       -1.54737208445139
C           -1.40008711902799       -3.37366989843718       -0.90793040802641
C           -2.55536509088113       -4.15713525465710       -0.82518958806314
C           -3.69720760751838       -3.68772318281991       -0.16904978320631
C           -3.71746244092398       -2.42913055205479        0.38371539925480
C           -2.57805816042908       -1.60992679760133        0.31737986122455
N           -2.58506577380221       -0.27723458345543        0.78565939849612
C           -1.62105779857534        0.07218270512065        1.70956640976360
C           -0.96966169179481       -0.94227157507466        2.43048733595524
C            0.03493252960895       -0.64640836411885        3.32207898619187
C            0.40005967958813        0.67465844202418        3.53315315788297
C           -0.28260248155898        1.68258089298996        2.87618521591552
C           -1.30185520973255        1.41242587175644        1.97347437379738
C           -2.05072507439862        2.55361717552935        1.32374708953476
C           -2.71873240144300        3.39222630231187        2.43186271382148
C           -1.05093781727343        3.41699220848048        0.52983771164275
C           -3.11603002045953        2.05567848754267        0.37096982227488
C           -3.90415072302754        2.97822790125284       -0.30564197668854
C           -4.85416023275221        2.59361648166448       -1.23298843010810
C           -5.01063345146075        1.24776212881965       -1.52359542123821
C           -4.24365907247275        0.31108531157017       -0.86705057701067
C           -3.31087441157030        0.69057387822919        0.10871286553381
C           -1.38571288879690       -2.08448247342981       -0.28830039978910
N           -0.30012508382131       -1.31548039655952       -0.26845664425120
C            1.77045029405480        0.41939381283546       -1.45038702708064
C            0.60464748879547        0.70579986449720       -2.17321807085395
C            0.41931023509287        1.93517849770747       -2.76723278343033
C            1.40731439130537        2.90157952922373       -2.67309021144624
C            2.57611582556103        2.61058222646210       -1.99325545142707
C            2.78552747986369        1.38369532486547       -1.37781032229367
H            5.25159038926066        2.21124356997394       -2.16254727287748
H            5.10482917897420        0.48334980848733       -2.48595851034443
H            6.20364389189058        1.05853027450056       -1.23114505753336
H            4.27689226966109        3.17257268484891        0.03191998248978
H            3.47709480643184        2.08163065576197        1.16582243717805
H            5.22859508199532        2.01805830599691        0.95947699888503
H            6.11228986197038        0.00140828184224        0.71749317186322
H            6.22607438102798       -2.16354485673831        1.83715895886491
H            4.25740505700479       -3.67491221832792        1.78861081864572
H            2.25028975087640       -3.01608106658376        0.55789080963780
H            1.82498300128678       -3.22141854853524       -2.03100774000551
H           -0.17193446289371       -4.71998568634229       -2.06766179739932
H           -2.54507188109317       -5.15199624092892       -1.24708953960470
H           -4.56643580136303       -4.32499862156818       -0.09413515130276
H           -4.59117296994229       -2.06440663227088        0.90429246703131
H           -1.27151339564277       -1.96748553363355        2.28209582361853
H            0.53323883192750       -1.44330312939725        3.85396366110810
H            1.19727151537756        0.91793736165641        4.21934742605983
H           -0.00777978597134        2.70681258396264        3.07625646404097
H           -1.97764158134537        3.76112288421906        3.13460528350702
H           -3.43638002139520        2.78180555767990        2.97701854896396
H           -3.24210918422151        4.24442677051360        2.00889662065448
H           -0.29016552543024        3.82754637720823        1.18702334268343
H           -1.55769540754368        4.24122246379583        0.03665196726829
H           -0.55970328027493        2.81030257815871       -0.22853941751402
H           -3.77066592961893        4.03121093273420       -0.11214051413933
H           -5.45302220652762        3.33673190496103       -1.73725023148375
H           -5.72562966305826        0.92646826230381       -2.26632951505179
H           -4.35612732158531       -0.73176415307850       -1.11561420526661
H           -0.16097328394964       -0.04662464950684       -2.26693035582402
H           -0.49473630050458        2.13397787891264       -3.30744710510720
H            1.27443303158791        3.86794257723786       -3.13514244734119
H            3.34553559905600        3.36565284094417       -1.94670390555675
