  96
       -146.65313760
 C         -7.9078480487       -1.6712916871       -0.5392076075
 C         -7.6189197744       -0.3469208429       -0.2531900147
 C         -6.3077671942        0.0556592625       -0.0868880468
 C         -5.2637615167       -0.8589593307       -0.1940060934
 C         -3.8416398930       -0.3520073252       -0.0344104725
 C         -2.8282077320       -1.4971560919        0.0708971352
 C         -1.8312212050       -1.6925140871       -0.8745029484
 C         -0.9240162352       -2.7300495247       -0.7348754312
 C         -0.9905780185       -3.5802150014        0.3535151712
 C         -1.9798653193       -3.3904064804        1.3037241032
 C         -2.8889749932       -2.3591280437        1.1622462187
 C         -3.4978382155        0.5362321553       -1.2082786560
 C         -4.0676864201        0.3489235154       -2.4576273375
 C         -3.6790982095        1.1190319583       -3.5411155561
 C         -2.7090578387        2.0944793408       -3.3774064896
 C         -2.1370872011        2.3018462974       -2.1395355777
 C         -2.5166303103        1.5198750436       -1.0453671207
 N         -1.9393734397        1.7438220195        0.1994001024
 C         -0.6949601720        2.3629406044        0.2357050142
 C         -0.4501938044        3.5661049363        0.8745576923
 N          0.7699983098        4.0726840006        0.9533004432
 C          1.7850356687        3.3953936231        0.3645525905
 C          1.5133185673        2.3148773291       -0.4579171959
 N          2.5041947587        1.5888945256       -1.0818319249
 C          3.8666932065        1.7364854870       -0.7725024911
 C          4.5436777353        2.9244825635       -1.0150076490
 C          5.8922321950        3.0159493835       -0.7206978108
 C          6.5633452851        1.9248550278       -0.1952072949
 C          5.8923009618        0.7338676238        0.0320087270
 C          4.5437684419        0.6240740462       -0.2608349591
 C          3.6915764039       -0.6082723543       -0.0033234949
 C          2.7283841871       -0.2674704665        1.1384154293
 C          1.4265605382       -0.7546279936        1.1393114022
 C          0.5388936525       -0.3945692236        2.1371085837
 C          0.9418984461        0.4515304185        3.1547690613
 C          2.2436767089        0.9212750249        3.1765050614
 C          3.1309433974        0.5640572820        2.1766636312
 C          4.5316766558       -1.8300930928        0.2921579182
 C          5.4691716340       -2.2459240477       -0.6505847893
 C          6.2546288996       -3.3594723423       -0.4211436214
 C          6.1143493562       -4.0777172498        0.7553114624
 C          5.1829699187       -3.6737626659        1.6946502776
 C          4.3953236885       -2.5573958018        1.4654653079
 C          2.8502317461       -0.7880538690       -1.2563198614
 C          2.6352699262       -1.9857053098       -1.9150681299
 C          1.7622784284       -2.0395156489       -2.9911712921
 C          1.0788468744       -0.9035071474       -3.3955545428
 C          1.2890445295        0.3009140423       -2.7513485444
 C          2.1850922190        0.3591926932       -1.6930779564
 N          0.2760132034        1.8040124502       -0.5534987423
 C         -2.6149608026        1.3548716740        1.3501260870
 C         -2.2745713835        1.8603211105        2.6074184466
 C         -3.0220460380        1.5389706437        3.7216382657
 C         -4.1280817753        0.7144980004        3.6053699044
 C         -4.4286104023        0.1518398894        2.3769309882
 C         -3.6722532734        0.4367115910        1.2506832617
 C         -5.5606366392       -2.1799430944       -0.4971776931
 C         -6.8753412324       -2.5828509249       -0.6651268723
 H         -8.9320909293       -1.9881699210       -0.6690033662
 H         -8.4176996283        0.3744397784       -0.1617705261
 H         -6.0845821412        1.0907154730        0.1306009350
 H         -1.7482380903       -1.0401542314       -1.7300608689
 H         -0.1594177751       -2.8658334626       -1.4853487559
 H         -0.2762670786       -4.3828858760        0.4631711231
 H         -2.0440447344       -4.0464946322        2.1596348978
 H         -3.6554179937       -2.2227836904        1.9105454003
 H         -4.8154914801       -0.4189915288       -2.5876984100
 H         -4.1308595215        0.9549929766       -4.5074688824
 H         -2.4039733093        2.7028144455       -4.2158329929
 H         -1.4015604919        3.0789412216       -2.0049000998
 H         -1.2617564690        4.1586223129        1.2710082814
 H          2.7867922648        3.6828796287        0.6323484582
 H          4.0134234541        3.7627379754       -1.4404626762
 H          6.4193073084        3.9399588611       -0.9043828938
 H          7.6137893716        1.9991228644        0.0423529044
 H          6.4209002399       -0.1078172991        0.4542815012
 H          1.0916278325       -1.4129707965        0.3527614196
 H         -0.4724319281       -0.7742946826        2.1108583632
 H          0.2453160809        0.7390407052        3.9283924357
 H          2.5703343314        1.5777007260        3.9697888786
 H          4.1430224362        0.9426101456        2.2018536197
 H          5.5794881141       -1.6882182679       -1.5702196492
 H          6.9779816986       -3.6681552828       -1.1618287420
 H          6.7280122577       -4.9478094491        0.9364053886
 H          5.0654431998       -4.2294772269        2.6135581434
 H          3.6697272697       -2.2543686748        2.2055681265
 H          3.1317244249       -2.8840459425       -1.5789966514
 H          1.6057489965       -2.9768727575       -3.5052094986
 H          0.3837412440       -0.9551809314       -4.2204747945
 H          0.7644320003        1.1920689530       -3.0559484449
 H         -1.4089057189        2.4930323684        2.7124939666
 H         -2.7430695161        1.9425990373        4.6834924785
 H         -4.7332085925        0.4831727997        4.4684040197
 H         -5.2633001431       -0.5290908860        2.2952282299
 H         -4.7644482624       -2.9010153741       -0.6082970230
 H         -7.0900903629       -3.6156504512       -0.8986861234
