  47
  -72.8772686300000       0.164548274941692      !
 C         -5.1178058341       -2.4852173972       -0.0006588575
 C         -4.8081858105       -1.3259964429        0.6901856415
 C         -3.5103356181       -0.8497799690        0.7141656116
 C         -2.5029709645       -1.5307329846        0.0335571803
 C         -1.1164885668       -1.0912347117        0.0200154424
 N         -0.1059573803       -1.9242492102        0.0164312207
 C          1.0145452286       -1.1570571030        0.0143522521
 C          2.3691126421       -1.5907736708        0.0507195019
 C          2.6933217539       -2.9503654389        0.1043894167
 C          4.0051433563       -3.3477788626        0.1724781199
 C          5.0116821930       -2.3842872521        0.1920714314
 C          4.7042713169       -1.0450831337        0.1337752970
 C          3.3760955187       -0.5988606759        0.0536293359
 C          3.0201161120        0.8062618138       -0.0441271689
 C          3.9984464167        1.8074973671       -0.1229413219
 C          3.6742283681        3.1363499874       -0.2594655207
 C          2.3408720128        3.5239990527       -0.3419476552
 C          1.3512063841        2.5757661230       -0.2615560544
 C          1.6594724768        1.2182867897       -0.0924359180
 C          0.6743852687        0.1946753967       -0.0009330838
 N         -0.7023559376        0.2235868021        0.0143727967
 C         -1.5556938488        1.3443335796        0.0193770749
 C         -1.5673231918        2.2062085662        1.1124989258
 C         -2.4272905574        3.2884495766        1.1211852527
 C         -3.2791027089        3.5102075578        0.0507946817
 C         -3.2693561983        2.6484676525       -1.0331898552
 C         -2.4099254953        1.5648074525       -1.0542840284
 C         -2.8181882418       -2.7120127874       -0.6391263376
 C         -4.1160941134       -3.1821980947       -0.6573693108
 H         -6.1344828951       -2.8491071236       -0.0188945880
 H         -5.5815814568       -0.7892393438        1.2200344859
 H         -3.2829606275        0.0391087589        1.2827446504
 H          1.8827907318       -3.6624362709        0.0977040549
 H          4.2604052379       -4.3963343152        0.2164527482
 H          6.0457710683       -2.6917444590        0.2544743552
 H          5.5169736861       -0.3364179793        0.1553329998
 H          5.0422999464        1.5408521146       -0.0866078880
 H          4.4565202606        3.8788726153       -0.3174425183
 H          2.0838081182        4.5646023357       -0.4744949709
 H          0.3202419625        2.8802177979       -0.3469803618
 H         -0.8998531066        2.0214742650        1.9416594283
 H         -2.4357307444        3.9571377656        1.9687576080
 H         -3.9506479023        4.3552222470        0.0630117101
 H         -3.9314940853        2.8206390157       -1.8680653146
 H         -2.3961198996        0.8847712041       -1.8930177324
 H         -2.0259750745       -3.2450201703       -1.1411172190
 H         -4.3500605975       -4.0947449387       -1.1856194206
  47
  -72.8772677600000       0.164396856652986      !
 C         -5.1103000463       -2.4858652483        0.2744947309
 C         -4.8283168723       -1.3564570964       -0.4750868628
 C         -3.5339028252       -0.8780211026       -0.5626512575
 C         -2.5019127254       -1.5265217431        0.1126188526
 C         -1.1166666977       -1.0858673445        0.0627089251
 N         -0.1065589722       -1.9194335026        0.0750961914
 C          1.0136042845       -1.1549378393        0.0087470819
 C          2.3661728580       -1.5925750159       -0.0470124112
 C          2.6873336834       -2.9539056961       -0.0497708155
 C          3.9962583898       -3.3567014278       -0.1381701136
 C          5.0025568355       -2.3971088687       -0.2301254527
 C          4.6982415616       -1.0559585060       -0.2221084940
 C          3.3733642569       -0.6038438340       -0.1225199631
 C          3.0211304364        0.8048435354       -0.0754813129
 C          4.0021468077        1.8064682072       -0.0634772027
 C          3.6827195888        3.1405675936        0.0246742359
 C          2.3521418240        3.5342554524        0.1225912968
 C          1.3597462301        2.5855468908        0.1072090819
 C          1.6625156765        1.2213480361       -0.0098834424
 C          0.6744835353        0.1966201350       -0.0286517814
 N         -0.7021269884        0.2271698981       -0.0049088258
 C         -1.5559649068        1.3469290311       -0.0424267800
 C         -2.3836309715        1.6192384319        1.0402841507
 C         -3.2471087635        2.6985478992        0.9869209759
 C         -3.2873400970        3.5046602163       -0.1384518084
 C         -2.4611383901        3.2320486046       -1.2171975314
 C         -1.5969029890        2.1539039372       -1.1759342155
 C         -2.7900642831       -2.6790198029        0.8451484568
 C         -4.0845467803       -3.1516918183        0.9265690941
 H         -6.1241783706       -2.8519672735        0.3414737918
 H         -5.6207047545       -0.8461022351       -1.0026233682
 H         -3.3293676298       -0.0136239285       -1.1758112550
 H          1.8765607231       -3.6631446091        0.0113595410
 H          4.2491584100       -4.4066909667       -0.1437016989
 H          6.0339996028       -2.7093215228       -0.3098936236
 H          5.5105624785       -0.3506946350       -0.2994169814
 H          5.0445063788        1.5360610847       -0.1132506759
 H          4.4670348517        3.8831392429        0.0332116102
 H          2.0997020354        4.5801341965        0.2165065588
 H          0.3312285289        2.8953410881        0.2035416915
 H         -2.3464546836        0.9820102006        1.9112383170
 H         -3.8897783430        2.9100158323        1.8280774432
 H         -3.9628915886        4.3457228629       -0.1764159139
 H         -2.4926654284        3.8579243612       -2.0964398572
 H         -0.9506882837        1.9287815038       -2.0121549190
 H         -1.9796913631       -3.1864957583        1.3442725871
 H         -4.2969898101       -4.0414147738        1.5011721977
  47
  -72.8772667100000       0.164214295993765      !
 C         -5.1168147332       -2.4836959007       -0.0037397280
 C         -4.1206512894       -3.1690775938       -0.6806317470
 C         -2.8226493043       -2.6988379431       -0.6652308797
 C         -2.5024868636       -1.5291235141        0.0247920542
 C         -1.1156546271       -1.0900649035        0.0113526447
 N         -0.1056506356       -1.9233840404        0.0087205189
 C          1.0151184501       -1.1562742188        0.0096436227
 C          2.3693577727       -1.5903985137        0.0509843228
 C          2.6925895660       -2.9500607788        0.1079894066
 C          4.0039221715       -3.3478157316        0.1822354331
 C          5.0107825758       -2.3846385171        0.2045358219
 C          4.7042994082       -1.0454065274        0.1431767916
 C          3.3766567616       -0.5988042983        0.0569780909
 C          3.0213019232        0.8062224069       -0.0446764303
 C          4.0000512554        1.8070565494       -0.1241236611
 C          3.6763408588        3.1353674306       -0.2673493100
 C          2.3432676620        3.5229546049       -0.3556524133
 C          1.3531345031        2.5753209856       -0.2733316987
 C          1.6609004206        1.2185626733       -0.0976969890
 C          0.6752813347        0.1954564807       -0.0058786269
 N         -0.7015504722        0.2247048406        0.0072070574
 C         -1.5560552715        1.3442662527        0.0209879338
 C         -1.5565066545        2.2062683776        1.1140022238
 C         -2.4190940041        3.2863729759        1.1330938450
 C         -3.2842504548        3.5061545207        0.0729954771
 C         -3.2853990633        2.6444186430       -1.0111248695
 C         -2.4237765820        1.5627978462       -1.0423709506
 C         -3.5042010496       -0.8589862018        0.7238887998
 C         -4.8020528707       -1.3355445809        0.7032834742
 H         -6.1331765322       -2.8486788689       -0.0183387048
 H         -4.3590446904       -4.0724186623       -1.2226577943
 H         -2.0346486608       -3.2227898796       -1.1835214785
 H          1.8817072217       -3.6617647467        0.0984422479
 H          4.2584933808       -4.3963648971        0.2279541189
 H          6.0444108253       -2.6925386206        0.2707570715
 H          5.5170808155       -0.3368706007        0.1671821838
 H          5.0437598164        1.5404297869       -0.0827535369
 H          4.4588301763        3.8777486834       -0.3249558963
 H          2.0870921606        4.5631408149       -0.4927452155
 H          0.3222250717        2.8792624449       -0.3624395101
 H         -0.8785148616        2.0234395853        1.9351133754
 H         -2.4181562408        3.9555945121        1.9803491752
 H         -3.9578170495        4.3494433184        0.0932423664
 H         -3.9583256445        2.8148704064       -1.8378440932
 H         -2.4180471905        0.8832669670       -1.8815644477
 H         -3.2717244302        0.0209936504        1.3040218367
 H         -5.5710440698       -0.8092882892        1.2498358581
  47
  -72.8772653600000       0.163979873003513      !
 C         -5.1113606244       -2.4725824859        0.3583463739
 C         -4.1049135338       -3.0730195993        1.0977335111
 C         -2.8093546126       -2.6033853473        1.0144354087
 C         -2.5018952164       -1.5181253236        0.1931154632
 C         -1.1160271978       -1.0792944950        0.1388063264
 N         -0.1057012849       -1.9074647273        0.2284403296
 C          1.0145933444       -1.1476264750        0.1198618915
 C          2.3679647644       -1.5860878252        0.1127331396
 C          2.6899586400       -2.9431455421        0.2184591912
 C          3.9999388500       -3.3496877964        0.1746931661
 C          5.0065153294       -2.3984925406        0.0199564105
 C          4.7012977269       -1.0612094820       -0.0791663433
 C          3.3751271658       -0.6047171812       -0.0296444829
 C          3.0212383589        0.8027156581       -0.0968715435
 C          4.0011424864        1.8035641649       -0.1599224575
 C          3.6800140206        3.1400575571       -0.1777431884
 C          2.3487441838        3.5384141687       -0.1136380094
 C          1.3573999334        2.5900172633       -0.0597996707
 C          1.6618435529        1.2211786901       -0.0722987955
 C          0.6746988411        0.1965514672       -0.0234943168
 N         -0.7023144701        0.2259408589       -0.0207074973
 C         -1.5575370155        1.3367870769       -0.1560266200
 C         -2.4133954458        1.6786059002        0.8841449484
 C         -3.2760596082        2.7497336159        0.7364414120
 C         -3.2874163881        3.4792114162       -0.4406315077
 C         -2.4340358304        3.1365731698       -1.4773784060
 C         -1.5707830082        2.0653903941       -1.3420466489
 C         -3.5142848154       -0.9345780138       -0.5658749498
 C         -4.8094861997       -1.4105942128       -0.4773251597
 H         -6.1257594895       -2.8370815162        0.4254682309
 H         -4.3330878503       -3.9102831290        1.7405660432
 H         -2.0132445417       -3.0631907197        1.5786846026
 H          1.8790555221       -3.6464810620        0.3272039249
 H          4.2536878698       -4.3964096873        0.2547024266
 H          6.0390381532       -2.7141860444       -0.0222872449
 H          5.5140519101       -0.3628140835       -0.2010150709
 H          5.0439298760        1.5315217766       -0.1861799477
 H          4.4634019084        3.8820788878       -0.2270457732
 H          2.0948704540        4.5881660876       -0.1016444567
 H          0.3283177830        2.9050217670        0.0095804206
 H         -2.3980778068        1.1016436435        1.7967658132
 H         -3.9402917076        3.0154326102        1.5448428270
 H         -3.9620730346        4.3144769380       -0.5519405843
 H         -2.4433568416        3.7020484139       -2.3970580290
 H         -0.9025933727        1.7869929379       -2.1440153814
 H         -3.2925774258       -0.1241501921       -1.2438558118
 H         -5.5870170882       -0.9502340071       -1.0689234015
  47
  -72.8770819000000       0.135044893700014      !
 C         -5.1153382496       -2.4903688252       -0.1354052524
 C         -4.0914782962       -3.1779194153       -0.7675101424
 C         -2.7954305293       -2.7079179485       -0.6971633366
 C         -2.5037835462       -1.5369774624        0.0041594940
 C         -1.1184066061       -1.0937494901        0.0255580601
 N         -0.1068833899       -1.9256496297        0.0330432939
 C          1.0132047011       -1.1578369248        0.0331494894
 C          2.3685811877       -1.5871613038        0.0905354572
 C          2.6965643384       -2.9425074460        0.1983768992
 C          4.0086057116       -3.3315043656        0.3030665841
 C          5.0113446799       -2.3638707092        0.3063369933
 C          4.7006267897       -1.0291142625        0.1904971095
 C          3.3727068623       -0.5925541149        0.0680437129
 C          3.0140599294        0.8061142311       -0.0927185059
 C          3.9895613593        1.7997785689       -0.2553594710
 C          3.6603667685        3.1204257079       -0.4491399584
 C          2.3249702639        3.5067362586       -0.5003447659
 C          1.3381055036        2.5649570985       -0.3435221257
 C          1.6525641164        1.2156255186       -0.1275619043
 C          0.6712897023        0.1930208068        0.0049628931
 N         -0.7052874074        0.2214409711        0.0159316869
 C         -1.5516347509        1.3459633996        0.0689753557
 C         -1.5234893809        2.1779000942        1.1848692025
 C         -2.3771338014        3.2630946943        1.2513106367
 C         -3.2610781645        3.5181340386        0.2149011601
 C         -3.2886760879        2.6877722975       -0.8932333287
 C         -2.4363384821        1.6010791880       -0.9719769636
 C         -3.5331922719       -0.8679423701        0.6627794690
 C         -4.8295128254       -1.3435108264        0.5857941350
 H         -6.1309131850       -2.8528131810       -0.1959266855
 H         -4.3066856720       -4.0812407575       -1.3191132203
 H         -1.9862384611       -3.2311470434       -1.1821400510
 H          1.8887258754       -3.6576378458        0.2075457682
 H          4.2665828137       -4.3766379264        0.3906868597
 H          6.0448143775       -2.6645113721        0.4024929869
 H          5.5090353209       -0.3152398117        0.2062015613
 H          5.0337510455        1.5316055054       -0.2467018920
 H          4.4398979472        3.8570422386       -0.5768538252
 H          2.0640695708        4.5407680645       -0.6713323013
 H          0.3044421376        2.8660929912       -0.4086987166
 H         -0.8309284275        1.9670632813        1.9868804620
 H         -2.3547952742        3.9080866598        2.1168991336
 H         -3.9285723602        4.3645327804        0.2723384264
 H         -3.9761977638        2.8863103330       -1.7013998063
 H         -2.4518688117        0.9455433293       -1.8298351371
 H         -3.3255207845        0.0111551016        1.2538345789
 H         -5.6208960578       -0.8163341893        1.0985699312
  47
  -72.8768994100000       0.111329836202520      !
 C         -5.1216646004       -2.4018944538        0.4433928542
 C         -4.8312052661       -1.3486031836       -0.4073304477
 C         -3.5284156794       -0.9114334633       -0.5612655597
 C         -2.4977743095       -1.5257670779        0.1466098979
 C         -1.1086466190       -1.1009337375        0.0524529107
 N         -0.0986790473       -1.9333507637        0.0495637006
 C          1.0210984275       -1.1661873616       -0.0183172073
 C          2.3752696834       -1.5954580636       -0.1016581519
 C          2.7034823954       -2.9527537009       -0.1808960204
 C          4.0128511086       -3.3423968344       -0.3139581753
 C          5.0129931457       -2.3738934961       -0.3728418465
 C          4.7025745800       -1.0368642216       -0.2852559937
 C          3.3776829808       -0.5991127235       -0.1377188401
 C          3.0212048389        0.8034850442       -0.0098382492
 C          3.9975972001        1.8024650045        0.1081903212
 C          3.6687715567        3.1276284008        0.2697181566
 C          2.3336390197        3.5141953701        0.3287511021
 C          1.3458816316        2.5671891589        0.2152507541
 C          1.6602533289        1.2124268393        0.0375593722
 C          0.6787839554        0.1845702534       -0.0360632419
 N         -0.6970319087        0.2133889578       -0.0071079388
 C         -1.5519380781        1.3282312611       -0.1034912937
 C         -2.4259717184        1.6271662841        0.9346154857
 C         -3.2967750081        2.6946794181        0.8085254396
 C         -3.2986288337        3.4618888792       -0.3444698023
 C         -2.4233860532        3.1647610279       -1.3770775682
 C         -1.5509285459        2.0988154312       -1.2629640563
 C         -2.7937377587       -2.6057051175        0.9783959532
 C         -4.0971691788       -3.0365362611        1.1274195366
 H         -6.1422469172       -2.7336739186        0.5649193691
 H         -5.6240461837       -0.8640131179       -0.9582934174
 H         -3.3157315823       -0.1051334404       -1.2470829707
 H          1.8974710504       -3.6692430748       -0.1471188457
 H          4.2703489842       -4.3890794497       -0.3822669019
 H          6.0439119581       -2.6754561008       -0.4910320884
 H          5.5082174230       -0.3221341177       -0.3451026027
 H          5.0419715498        1.5352865238        0.0912996541
 H          4.4489557441        3.8685661602        0.3647773227
 H          2.0740625288        4.5523167389        0.4748334013
 H          0.3122557592        2.8676968882        0.2873143693
 H         -2.4197910879        1.0197039370        1.8272991857
 H         -3.9764703653        2.9265798142        1.6144865390
 H         -3.9826556846        4.2914262317       -0.4403848362
 H         -2.4245989198        3.7600558226       -2.2779164454
 H         -0.8669927982        1.8537092522       -2.0627015908
 H         -1.9843820670       -3.0906761575        1.5016701842
 H         -4.3166492293       -3.8709058614        1.7772721492
  47
  -72.8767641800000       9.648596950550840E-002 !
 C         -5.1042311561       -2.5120402153        0.0673555902
 C         -4.8129146238       -1.3362577096       -0.6030280229
 C         -3.5220477916       -0.8413929556       -0.6221122658
 C         -2.5018717141       -1.5205228495        0.0415239335
 C         -1.1177142708       -1.0763084414        0.0358870344
 N         -0.1078585322       -1.9101340979        0.0666614769
 C          1.0124522619       -1.1464027179        0.0079439347
 C          2.3648366425       -1.5878160763        0.0111039172
 C          2.6823999659       -2.9465942942        0.1084277105
 C          3.9932800765       -3.3524082559        0.1201867702
 C          5.0053693692       -2.3985135831        0.0316309519
 C          4.7039801091       -1.0604085847       -0.0678427139
 C          3.3763083806       -0.6054943261       -0.0807178870
 C          3.0245452179        0.8017100812       -0.1566103779
 C          4.0058630514        1.7961830530       -0.2746985644
 C          3.6908674651        3.1338179164       -0.3055938541
 C          2.3649582601        3.5395982610       -0.1956011186
 C          1.3719989380        2.5970290650       -0.0930191787
 C          1.6675220635        1.2260268146       -0.1001432209
 C          0.6754375131        0.2055267307       -0.0517854011
 N         -0.7022257189        0.2362626499       -0.0399321120
 C         -1.5615414569        1.3519469543        0.0314067079
 C         -2.2876828314        1.5709098457        1.1959591348
 C         -3.1545798688        2.6459173675        1.2725171775
 C         -3.2999051654        3.5008210313        0.1930895243
 C         -2.5785902186        3.2793157210       -0.9694095134
 C         -1.7114717910        2.2057275438       -1.0574448498
 C         -2.8002128736       -2.7155239825        0.6984141544
 C         -4.0911889087       -3.2040830784        0.7121253555
 H         -6.1148696473       -2.8926704161        0.0782781989
 H         -5.5949354994       -0.8014584448       -1.1222467697
 H         -3.3105925273        0.0605331362       -1.1755946760
 H          1.8679370199       -3.6510054202        0.1753521723
 H          4.2439232548       -4.4000251383        0.1991986686
 H          6.0392370039       -2.7126989642        0.0432336021
 H          5.5213119106       -0.3593114473       -0.1281869009
 H          5.0446205056        1.5171757504       -0.3474793102
 H          4.4744184605        3.8704154706       -0.4057835598
 H          2.1156899444        4.5905118610       -0.1943317966
 H          0.3478789872        2.9194644885        0.0028337704
 H         -2.1678009020        0.8957692983        2.0303432205
 H         -3.7160786730        2.8156156399        2.1787873999
 H         -3.9758415924        4.3400393255        0.2562226480
 H         -2.6934413676        3.9434888227       -1.8129102718
 H         -1.1480906022        2.0210049743       -1.9607625546
 H         -1.9987442978       -3.2459999409        1.1880911462
 H         -4.3107077567       -4.1292068561        1.2245042641
