  47
        -72.87726863
 C         -5.1178058341       -2.4852173972       -0.0006588575
 C         -4.8081858105       -1.3259964429        0.6901856415
 C         -3.5103356181       -0.8497799690        0.7141656116
 C         -2.5029709645       -1.5307329846        0.0335571803
 C         -1.1164885668       -1.0912347117        0.0200154424
 N         -0.1059573803       -1.9242492102        0.0164312207
 C          1.0145452286       -1.1570571030        0.0143522521
 C          2.3691126421       -1.5907736708        0.0507195019
 C          2.6933217539       -2.9503654389        0.1043894167
 C          4.0051433563       -3.3477788626        0.1724781199
 C          5.0116821930       -2.3842872521        0.1920714314
 C          4.7042713169       -1.0450831337        0.1337752970
 C          3.3760955187       -0.5988606759        0.0536293359
 C          3.0201161120        0.8062618138       -0.0441271689
 C          3.9984464167        1.8074973671       -0.1229413219
 C          3.6742283681        3.1363499874       -0.2594655207
 C          2.3408720128        3.5239990527       -0.3419476552
 C          1.3512063841        2.5757661230       -0.2615560544
 C          1.6594724768        1.2182867897       -0.0924359180
 C          0.6743852687        0.1946753967       -0.0009330838
 N         -0.7023559376        0.2235868021        0.0143727967
 C         -1.5556938488        1.3443335796        0.0193770749
 C         -1.5673231918        2.2062085662        1.1124989258
 C         -2.4272905574        3.2884495766        1.1211852527
 C         -3.2791027089        3.5102075578        0.0507946817
 C         -3.2693561983        2.6484676525       -1.0331898552
 C         -2.4099254953        1.5648074525       -1.0542840284
 C         -2.8181882418       -2.7120127874       -0.6391263376
 C         -4.1160941134       -3.1821980947       -0.6573693108
 H         -6.1344828951       -2.8491071236       -0.0188945880
 H         -5.5815814568       -0.7892393438        1.2200344859
 H         -3.2829606275        0.0391087589        1.2827446504
 H          1.8827907318       -3.6624362709        0.0977040549
 H          4.2604052379       -4.3963343152        0.2164527482
 H          6.0457710683       -2.6917444590        0.2544743552
 H          5.5169736861       -0.3364179793        0.1553329998
 H          5.0422999464        1.5408521146       -0.0866078880
 H          4.4565202606        3.8788726153       -0.3174425183
 H          2.0838081182        4.5646023357       -0.4744949709
 H          0.3202419625        2.8802177979       -0.3469803618
 H         -0.8998531066        2.0214742650        1.9416594283
 H         -2.4357307444        3.9571377656        1.9687576080
 H         -3.9506479023        4.3552222470        0.0630117101
 H         -3.9314940853        2.8206390157       -1.8680653146
 H         -2.3961198996        0.8847712041       -1.8930177324
 H         -2.0259750745       -3.2450201703       -1.1411172190
 H         -4.3500605975       -4.0947449387       -1.1856194206
