  47
  -72.5649202216000       0.318003476909042      !
 C         -5.1178058341       -2.4852173972       -0.0006588575
 C         -4.8081858105       -1.3259964429        0.6901856415
 C         -3.5103356181       -0.8497799690        0.7141656116
 C         -2.5029709645       -1.5307329846        0.0335571803
 C         -1.1164885668       -1.0912347117        0.0200154424
 N         -0.1059573803       -1.9242492102        0.0164312207
 C          1.0145452286       -1.1570571030        0.0143522521
 C          2.3691126421       -1.5907736708        0.0507195019
 C          2.6933217539       -2.9503654389        0.1043894167
 C          4.0051433563       -3.3477788626        0.1724781199
 C          5.0116821930       -2.3842872521        0.1920714314
 C          4.7042713169       -1.0450831337        0.1337752970
 C          3.3760955187       -0.5988606759        0.0536293359
 C          3.0201161120        0.8062618138       -0.0441271689
 C          3.9984464167        1.8074973671       -0.1229413219
 C          3.6742283681        3.1363499874       -0.2594655207
 C          2.3408720128        3.5239990527       -0.3419476552
 C          1.3512063841        2.5757661230       -0.2615560544
 C          1.6594724768        1.2182867897       -0.0924359180
 C          0.6743852687        0.1946753967       -0.0009330838
 N         -0.7023559376        0.2235868021        0.0143727967
 C         -1.5556938488        1.3443335796        0.0193770749
 C         -1.5673231918        2.2062085662        1.1124989258
 C         -2.4272905574        3.2884495766        1.1211852527
 C         -3.2791027089        3.5102075578        0.0507946817
 C         -3.2693561983        2.6484676525       -1.0331898552
 C         -2.4099254953        1.5648074525       -1.0542840284
 C         -2.8181882418       -2.7120127874       -0.6391263376
 C         -4.1160941134       -3.1821980947       -0.6573693108
 H         -6.1344828951       -2.8491071236       -0.0188945880
 H         -5.5815814568       -0.7892393438        1.2200344859
 H         -3.2829606275        0.0391087589        1.2827446504
 H          1.8827907318       -3.6624362709        0.0977040549
 H          4.2604052379       -4.3963343152        0.2164527482
 H          6.0457710683       -2.6917444590        0.2544743552
 H          5.5169736861       -0.3364179793        0.1553329998
 H          5.0422999464        1.5408521146       -0.0866078880
 H          4.4565202606        3.8788726153       -0.3174425183
 H          2.0838081182        4.5646023357       -0.4744949709
 H          0.3202419625        2.8802177979       -0.3469803618
 H         -0.8998531066        2.0214742650        1.9416594283
 H         -2.4357307444        3.9571377656        1.9687576080
 H         -3.9506479023        4.3552222470        0.0630117101
 H         -3.9314940853        2.8206390157       -1.8680653146
 H         -2.3961198996        0.8847712041       -1.8930177324
 H         -2.0259750745       -3.2450201703       -1.1411172190
 H         -4.3500605975       -4.0947449387       -1.1856194206
  47
  -72.5647219186000       0.257809026827994      !
 C         -5.1153382496       -2.4903688252       -0.1354052524
 C         -4.0914782962       -3.1779194153       -0.7675101424
 C         -2.7954305293       -2.7079179485       -0.6971633366
 C         -2.5037835462       -1.5369774624        0.0041594940
 C         -1.1184066061       -1.0937494901        0.0255580601
 N         -0.1068833899       -1.9256496297        0.0330432939
 C          1.0132047011       -1.1578369248        0.0331494894
 C          2.3685811877       -1.5871613038        0.0905354572
 C          2.6965643384       -2.9425074460        0.1983768992
 C          4.0086057116       -3.3315043656        0.3030665841
 C          5.0113446799       -2.3638707092        0.3063369933
 C          4.7006267897       -1.0291142625        0.1904971095
 C          3.3727068623       -0.5925541149        0.0680437129
 C          3.0140599294        0.8061142311       -0.0927185059
 C          3.9895613593        1.7997785689       -0.2553594710
 C          3.6603667685        3.1204257079       -0.4491399584
 C          2.3249702639        3.5067362586       -0.5003447659
 C          1.3381055036        2.5649570985       -0.3435221257
 C          1.6525641164        1.2156255186       -0.1275619043
 C          0.6712897023        0.1930208068        0.0049628931
 N         -0.7052874074        0.2214409711        0.0159316869
 C         -1.5516347509        1.3459633996        0.0689753557
 C         -1.5234893809        2.1779000942        1.1848692025
 C         -2.3771338014        3.2630946943        1.2513106367
 C         -3.2610781645        3.5181340386        0.2149011601
 C         -3.2886760879        2.6877722975       -0.8932333287
 C         -2.4363384821        1.6010791880       -0.9719769636
 C         -3.5331922719       -0.8679423701        0.6627794690
 C         -4.8295128254       -1.3435108264        0.5857941350
 H         -6.1309131850       -2.8528131810       -0.1959266855
 H         -4.3066856720       -4.0812407575       -1.3191132203
 H         -1.9862384611       -3.2311470434       -1.1821400510
 H          1.8887258754       -3.6576378458        0.2075457682
 H          4.2665828137       -4.3766379264        0.3906868597
 H          6.0448143775       -2.6645113721        0.4024929869
 H          5.5090353209       -0.3152398117        0.2062015613
 H          5.0337510455        1.5316055054       -0.2467018920
 H          4.4398979472        3.8570422386       -0.5768538252
 H          2.0640695708        4.5407680645       -0.6713323013
 H          0.3044421376        2.8660929912       -0.4086987166
 H         -0.8309284275        1.9670632813        1.9868804620
 H         -2.3547952742        3.9080866598        2.1168991336
 H         -3.9285723602        4.3645327804        0.2723384264
 H         -3.9761977638        2.8863103330       -1.7013998063
 H         -2.4518688117        0.9455433293       -1.8298351371
 H         -3.3255207845        0.0111551016        1.2538345789
 H         -5.6208960578       -0.8163341893        1.0985699312
  47
  -72.5645766156000       0.221065761298691      !
 C         -5.1216646004       -2.4018944538        0.4433928542
 C         -4.8312052661       -1.3486031836       -0.4073304477
 C         -3.5284156794       -0.9114334633       -0.5612655597
 C         -2.4977743095       -1.5257670779        0.1466098979
 C         -1.1086466190       -1.1009337375        0.0524529107
 N         -0.0986790473       -1.9333507637        0.0495637006
 C          1.0210984275       -1.1661873616       -0.0183172073
 C          2.3752696834       -1.5954580636       -0.1016581519
 C          2.7034823954       -2.9527537009       -0.1808960204
 C          4.0128511086       -3.3423968344       -0.3139581753
 C          5.0129931457       -2.3738934961       -0.3728418465
 C          4.7025745800       -1.0368642216       -0.2852559937
 C          3.3776829808       -0.5991127235       -0.1377188401
 C          3.0212048389        0.8034850442       -0.0098382492
 C          3.9975972001        1.8024650045        0.1081903212
 C          3.6687715567        3.1276284008        0.2697181566
 C          2.3336390197        3.5141953701        0.3287511021
 C          1.3458816316        2.5671891589        0.2152507541
 C          1.6602533289        1.2124268393        0.0375593722
 C          0.6787839554        0.1845702534       -0.0360632419
 N         -0.6970319087        0.2133889578       -0.0071079388
 C         -1.5519380781        1.3282312611       -0.1034912937
 C         -2.4259717184        1.6271662841        0.9346154857
 C         -3.2967750081        2.6946794181        0.8085254396
 C         -3.2986288337        3.4618888792       -0.3444698023
 C         -2.4233860532        3.1647610279       -1.3770775682
 C         -1.5509285459        2.0988154312       -1.2629640563
 C         -2.7937377587       -2.6057051175        0.9783959532
 C         -4.0971691788       -3.0365362611        1.1274195366
 H         -6.1422469172       -2.7336739186        0.5649193691
 H         -5.6240461837       -0.8640131179       -0.9582934174
 H         -3.3157315823       -0.1051334404       -1.2470829707
 H          1.8974710504       -3.6692430748       -0.1471188457
 H          4.2703489842       -4.3890794497       -0.3822669019
 H          6.0439119581       -2.6754561008       -0.4910320884
 H          5.5082174230       -0.3221341177       -0.3451026027
 H          5.0419715498        1.5352865238        0.0912996541
 H          4.4489557441        3.8685661602        0.3647773227
 H          2.0740625288        4.5523167389        0.4748334013
 H          0.3122557592        2.8676968882        0.2873143693
 H         -2.4197910879        1.0197039370        1.8272991857
 H         -3.9764703653        2.9265798142        1.6144865390
 H         -3.9826556846        4.2914262317       -0.4403848362
 H         -2.4245989198        3.7600558226       -2.2779164454
 H         -0.8669927982        1.8537092522       -2.0627015908
 H         -1.9843820670       -3.0906761575        1.5016701842
 H         -4.3166492293       -3.8709058614        1.7772721492
  47
  -72.5644966164000       0.203121734964274      !
 C         -5.1042311561       -2.5120402153        0.0673555902
 C         -4.8129146238       -1.3362577096       -0.6030280229
 C         -3.5220477916       -0.8413929556       -0.6221122658
 C         -2.5018717141       -1.5205228495        0.0415239335
 C         -1.1177142708       -1.0763084414        0.0358870344
 N         -0.1078585322       -1.9101340979        0.0666614769
 C          1.0124522619       -1.1464027179        0.0079439347
 C          2.3648366425       -1.5878160763        0.0111039172
 C          2.6823999659       -2.9465942942        0.1084277105
 C          3.9932800765       -3.3524082559        0.1201867702
 C          5.0053693692       -2.3985135831        0.0316309519
 C          4.7039801091       -1.0604085847       -0.0678427139
 C          3.3763083806       -0.6054943261       -0.0807178870
 C          3.0245452179        0.8017100812       -0.1566103779
 C          4.0058630514        1.7961830530       -0.2746985644
 C          3.6908674651        3.1338179164       -0.3055938541
 C          2.3649582601        3.5395982610       -0.1956011186
 C          1.3719989380        2.5970290650       -0.0930191787
 C          1.6675220635        1.2260268146       -0.1001432209
 C          0.6754375131        0.2055267307       -0.0517854011
 N         -0.7022257189        0.2362626499       -0.0399321120
 C         -1.5615414569        1.3519469543        0.0314067079
 C         -2.2876828314        1.5709098457        1.1959591348
 C         -3.1545798688        2.6459173675        1.2725171775
 C         -3.2999051654        3.5008210313        0.1930895243
 C         -2.5785902186        3.2793157210       -0.9694095134
 C         -1.7114717910        2.2057275438       -1.0574448498
 C         -2.8002128736       -2.7155239825        0.6984141544
 C         -4.0911889087       -3.2040830784        0.7121253555
 H         -6.1148696473       -2.8926704161        0.0782781989
 H         -5.5949354994       -0.8014584448       -1.1222467697
 H         -3.3105925273        0.0605331362       -1.1755946760
 H          1.8679370199       -3.6510054202        0.1753521723
 H          4.2439232548       -4.4000251383        0.1991986686
 H          6.0392370039       -2.7126989642        0.0432336021
 H          5.5213119106       -0.3593114473       -0.1281869009
 H          5.0446205056        1.5171757504       -0.3474793102
 H          4.4744184605        3.8704154706       -0.4057835598
 H          2.1156899444        4.5905118610       -0.1943317966
 H          0.3478789872        2.9194644885        0.0028337704
 H         -2.1678009020        0.8957692983        2.0303432205
 H         -3.7160786730        2.8156156399        2.1787873999
 H         -3.9758415924        4.3400393255        0.2562226480
 H         -2.6934413676        3.9434888227       -1.8129102718
 H         -1.1480906022        2.0210049743       -1.9607625546
 H         -1.9987442978       -3.2459999409        1.1880911462
 H         -4.3107077567       -4.1292068561        1.2245042641
