  90
       -137.31158205
 C         -0.0055042103       -5.3039571855        1.6209763341
 C         -1.2183675762       -4.7093935988        1.3263429853
 C         -1.2628322022       -3.5146668958        0.6099894611
 C         -2.5478710272       -2.8930318859        0.2601261814
 C         -3.6258798120       -3.6877785946       -0.1331816308
 C         -4.8428659832       -3.1348915594       -0.4884645354
 C         -4.9860483955       -1.7575994777       -0.4497048865
 C         -3.9062167847       -0.9536759967       -0.0557324395
 C         -2.6970705087       -1.5042395929        0.2972301905
 C         -4.2865885438        0.5060867643       -0.1059091839
 C         -4.1020161299        1.2357617575        1.2013668439
 C         -4.6657225339        0.9518363412        2.4256494934
 C         -4.3574022733        1.7733774564        3.5017992048
 C         -3.5013715980        2.8536039577        3.3484146260
 C         -2.9321015082        3.1415073294        2.1181556853
 C         -3.2369566760        2.3279052250        1.0395905387
 C         -2.8145433701        2.3795311758       -0.3511678926
 C         -1.9876979306        3.2635171996       -1.0238317906
 C         -1.7731707835        3.0699741459       -2.3788850022
 C         -2.3645502721        2.0109754551       -3.0503403870
 C         -3.1948144395        1.1207111092       -2.3827320888
 C         -3.4166399355        1.3154307351       -1.0374310105
 C         -5.7243362241        0.4354176590       -0.5613250524
 C         -6.6017836429        1.4731894637       -0.7845521328
 C         -7.8871500793        1.1709029642       -1.2143256375
 C         -8.2780661769       -0.1444671069       -1.4153830935
 C         -7.3976859114       -1.1908631609       -1.1919346975
 C         -6.1140173439       -0.8969198399       -0.7620880461
 C         -0.0658788523       -2.9279859396        0.2116750186
 C          1.1569913646       -3.5261873365        0.4924647928
 C          2.4072903308       -2.9034396748        0.0322905737
 C          3.3835216422       -3.6767448523       -0.5953532468
 C          4.5568149008       -3.1151419991       -1.0664234700
 C          4.7628948303       -1.7567165374       -0.8894317319
 C          3.7936465904       -0.9794185113       -0.2376186694
 C          2.6193707945       -1.5350961188        0.2128361497
 C          4.2529272286        0.4529799175       -0.1233113539
 C          4.4120650750        0.9118092933        1.3076338604
 C          5.1793834768        0.3500662860        2.3039412361
 C          5.1876125127        0.9570863766        3.5526474167
 C          4.4422849545        2.1022420841        3.7903249269
 C          3.6697270475        2.6694867567        2.7895251520
 C          3.6562487405        2.0691623951        1.5413094352
 C          2.9620158240        2.4209298155        0.3128063404
 C          2.1108632525        3.4716321767        0.0139976842
 C          1.5933221894        3.5615673292       -1.2678586874
 C          1.9074815228        2.6155632586       -2.2315016574
 C          2.7623819500        1.5611003126       -1.9400708248
 C          3.2891792551        1.4751560329       -0.6701153941
 C          5.5763586167        0.4120994509       -0.8505240131
 C          6.4501881800        1.4485314723       -1.0931103226
 C          7.6291370339        1.1731741667       -1.7731495379
 C          7.9217515059       -0.1153889811       -2.1942861783
 C          7.0451257897       -1.1604533557       -1.9506465619
 C          5.8655371548       -0.8927175416       -1.2754578333
 C          1.1775973849       -4.7258723702        1.1992258301
 H          0.0176115710       -6.2263229439        2.1831516546
 H         -2.1367614306       -5.1627174652        1.6687038993
 H         -3.4964241934       -4.7590064900       -0.1831742223
 H         -5.6624346319       -3.7676749445       -0.7954815180
 H         -1.8795166624       -0.8739819633        0.6150977595
 H         -5.3337656577        0.1111525721        2.5443538867
 H         -4.7904493308        1.5692371533        4.4699064951
 H         -3.2768888602        3.4790101973        4.2002932068
 H         -2.2665810219        3.9842351696        2.0033906784
 H         -1.5243226231        4.0881600061       -0.5033198576
 H         -1.1406583616        3.7547772759       -2.9240913419
 H         -2.1812268291        1.8795182454       -4.1065922706
 H         -3.6595053736        0.2973570197       -2.9057078367
 H         -6.2962076595        2.4976523229       -0.6284954154
 H         -8.5907761212        1.9700421428       -1.3952729017
 H         -9.2827421896       -0.3549181018       -1.7519724515
 H         -7.7062227546       -2.2134759541       -1.3510663732
 H         -0.0853051681       -2.0150321485       -0.3656194217
 H          3.2024394821       -4.7325183799       -0.7366417731
 H          5.2950506002       -3.7263104893       -1.5642042553
 H          1.8786525053       -0.9302826254        0.7155650014
 H          5.7616714446       -0.5404872438        2.1166744590
 H          5.7824517868        0.5329451708        4.3480795991
 H          4.4658459705        2.5579502849        4.7694805929
 H          3.0916042026        3.5615067615        2.9802091560
 H          1.8599605704        4.2086311800        0.7626167216
 H          0.9401053617        4.3829090457       -1.5217084686
 H          1.4857125214        2.7009153558       -3.2219714270
 H          3.0123229903        0.8267176746       -2.6920327459
 H          6.2219193980        2.4516177624       -0.7630421658
 H          8.3269832111        1.9720593340       -1.9760081077
 H          8.8458641382       -0.3057337818       -2.7203676807
 H          7.2772625627       -2.1619236349       -2.2815523525
 H          2.1235438639       -5.1912287665        1.4341674019
