  120
       -189.84989553
 N         12.8159580784       -6.5098250063        0.2910750362
 C         11.8434933321       -5.9039054716        0.2478808518
 C         10.6436085879       -5.1591214171        0.2010401940
 C         10.5031442156       -4.0085992880        0.9784351337
 C          9.3300237435       -3.2856256264        0.9261976355
 C          8.2749735831       -3.6918747471        0.1082873864
 C          7.0247504464       -2.9220599154        0.0618789529
 C          5.7887424520       -3.5772705532        0.0429972598
 C          4.6272362780       -2.8466140982        0.0160362616
 C          4.6569564965       -1.4490666536       -0.0030748844
 C          5.8902181930       -0.7680458049        0.0005325741
 C          7.0561894144       -1.5363171133        0.0391717424
 C          5.9131809988        0.6885831534       -0.0336314400
 C          7.1031959011        1.4188166474       -0.0758509835
 C          7.1165325018        2.8047757220       -0.1002947595
 C          8.3913480427        3.5329936944       -0.1499877424
 C          8.5823298331        4.6807115020        0.6201247991
 C          9.7764594484        5.3690256338        0.5785707265
 C         10.8076976963        4.9196581156       -0.2476360449
 C         12.0316247828        5.6237958613       -0.2982669888
 N         13.0249527003        6.1949951973       -0.3378576320
 C         10.6268511504        3.7749101113       -1.0251685435
 C          9.4303265952        3.0917067711       -0.9703055188
 C          5.9023709301        3.4995595030       -0.0800172942
 C          4.7178974562        2.8067286517       -0.0489952804
 C          4.7023773373        1.4090072235       -0.0273099274
 C          3.4357975691        0.7131545160       -0.0078678129
 N          2.3181293364        1.4171062316        0.0120968121
 C          1.1569567742        0.7497316112        0.0099020865
 C         -0.0624559549        1.4557320171        0.0201847274
 C         -1.2582274544        0.7870591863       -0.0060287811
 C         -2.5353389471        1.5138663671       -0.0552248404
 C         -3.4874690151        1.1887218797       -1.0210902192
 C         -4.7271695955        1.7843917083       -1.0159434428
 C         -5.0613509004        2.7175380460       -0.0320759819
 N         -6.3592507348        3.2273806464        0.0219884753
 C         -7.4275833114        2.3629668348       -0.2598038945
 C         -7.3919193862        1.0406178290        0.1823151157
 C         -8.4342467775        0.1823848805       -0.1054783111
 C         -9.5251043044        0.6248810691       -0.8356696558
 C         -9.5686084689        1.9393761235       -1.2705914150
 C         -8.5301672263        2.8063337858       -0.9876927078
 C         -6.5996364387        4.5523719231        0.3943510936
 C         -7.7320338686        4.8854647612        1.1376316514
 C         -7.9665893731        6.1981304568        1.4973640062
 C         -7.0778088581        7.1963067319        1.1329324253
 C         -5.9498793432        6.8702137955        0.3977457626
 C         -5.7106405903        5.5619589059        0.0251093771
 C         -4.0891275258        3.0944498283        0.8943371562
 C         -2.8418030529        2.5038076372        0.8737619977
 C         -1.2791916922       -0.6421598816       -0.0113606791
 C         -2.5743122168       -1.3437327662        0.0332880940
 C         -2.9242662929       -2.2571899361       -0.9565791000
 C         -4.1722144004       -2.8450026672       -0.9625215616
 C         -5.0954188996       -2.5528541150        0.0409875430
 N         -6.3758901534       -3.1178055009        0.0015845216
 C         -7.0515814183       -3.1576037024       -1.2252894234
 C         -7.8439373882       -4.2513665977       -1.5701609131
 C         -8.5137063541       -4.2693029630       -2.7784865150
 C         -8.3997406453       -3.2070713930       -3.6604559304
 C         -7.6060440053       -2.1220680171       -3.3253565339
 C         -6.9358890401       -2.0923242887       -2.1183443994
 C         -6.9763451066       -3.5905090310        1.1700359441
 C         -8.3599008599       -3.5293424817        1.3421884377
 C         -8.9400139838       -3.9975214859        2.5048547710
 C         -8.1580871686       -4.5284075622        3.5172305055
 C         -6.7841890963       -4.5931299446        3.3523150118
 C         -6.1950279928       -4.1342299420        2.1908345768
 C         -4.7265495271       -1.6815205548        1.0656133121
 C         -3.4867908879       -1.0795596480        1.0526498866
 C         -0.1054589134       -1.3468153450       -0.0356397369
 C          1.1352451418       -0.6780970431       -0.0256547700
 N          2.2742516343       -1.3814021384       -0.0318156670
 C          3.4136100855       -0.7128662920       -0.0169662767
 C          8.4256896918       -4.8455323978       -0.6619649930
 C          9.5959825569       -5.5737425846       -0.6226961670
 H         11.3146854724       -3.6946238405        1.6184565336
 H          9.2174150263       -2.4068239500        1.5440464697
 H          5.7532107602       -4.6558903659        0.0780646377
 H          3.6621491070       -3.3282409298        0.0138929697
 H          8.0213285881       -1.0550700143        0.0332818892
 H          8.0522930174        0.9066155434       -0.0714156287
 H          7.7916918357        5.0215929277        1.2719349729
 H          9.9226394500        6.2538290812        1.1805459250
 H         11.4259026857        3.4341401522       -1.6671601572
 H          9.2868246060        2.2174095680       -1.5881148878
 H          5.9016362532        4.5787078379       -0.1171009613
 H          3.7688863404        3.3193072573       -0.0451695492
 H         -0.0284739402        2.5347249185        0.0177575844
 H         -3.2452448419        0.4690413545       -1.7885488447
 H         -5.4587699241        1.5230652345       -1.7664120148
 H         -6.5412839567        0.6933195061        0.7507981669
 H         -8.3968184009       -0.8348777587        0.2522242105
 H        -10.3356239198       -0.0505554043       -1.0635741196
 H        -10.4145774418        2.2921354255       -1.8421511652
 H         -8.5622486843        3.8296512254       -1.3324263348
 H         -8.4210942236        4.1079627804        1.4335414254
 H         -8.8462664597        6.4417051249        2.0748971712
 H         -7.2628463368        8.2203265511        1.4194624652
 H         -5.2541186251        7.6424996352        0.1039444904
 H         -4.8369007908        5.3125149023       -0.5591449897
 H         -4.3278911900        3.8316007041        1.6468062113
 H         -2.1083562909        2.7774726362        1.6184937334
 H         -2.2189093048       -2.4842236046       -1.7430655441
 H         -4.4468465371       -3.5317868146       -1.7498015371
 H         -7.9269097246       -5.0843042437       -0.8872289276
 H         -9.1242060167       -5.1227648265       -3.0356434776
 H         -8.9250506825       -3.2256364634       -4.6033416281
 H         -7.5154543193       -1.2871453133       -4.0045373306
 H         -6.3258087471       -1.2413270313       -1.8523841840
 H         -8.9796994740       -3.1156493657        0.5599528103
 H        -10.0121702598       -3.9394892123        2.6229324073
 H         -8.6154142589       -4.8904972280        4.4252849936
 H         -6.1651007484       -5.0128324282        4.1316216592
 H         -5.1243578757       -4.1984842564        2.0629141515
 H         -5.4265154392       -1.4693471491        1.8607798217
 H         -3.2197023477       -0.3897416839        1.8397948968
 H         -0.1046521102       -2.4264184197       -0.0362225941
 H          7.6225621037       -5.1600154018       -1.3117509087
 H          9.7111879826       -6.4629149992       -1.2250376993
