  54
        -83.65974604
 N          5.1021018571       -2.8638506803       -0.3376396720
 C          5.1748964624       -1.7261764689       -0.1927024497
 C          5.3760744393       -0.3409588836       -0.0193841445
 C          4.3816250503        0.5737662624        0.0749148602
 C          2.9517924081        0.3898171562        0.0711645673
 C          2.3184564610       -0.8556341511        0.1543526264
 C          0.9449889708       -0.9547181756        0.1437630471
 C          0.1452442239        0.1875824418        0.0502870955
 C         -1.2954766646        0.1320122657        0.0299311812
 N         -2.0830718042        1.1848449066       -0.0319166734
 C         -3.3603851178        0.7315474609       -0.0359303026
 C         -4.4735173519        1.6629702295       -0.1571894795
 C         -5.6478109244        1.3182056035       -0.8234705863
 C         -6.6800862030        2.2307397329       -0.9305673982
 C         -6.5538577989        3.4973765298       -0.3834820325
 C         -5.3812895290        3.8537895859        0.2623463801
 C         -4.3460669227        2.9456393222        0.3723056735
 C         -3.3600007481       -0.6593382468        0.0368905258
 C         -4.4213396085       -1.6444546356        0.1346257773
 C         -5.5837583928       -1.3673953086        0.8559078676
 C         -6.5839528090       -2.3138116818        0.9577147808
 C         -6.4421029519       -3.5512207457        0.3492210679
 C         -5.2893315359       -3.8385340405       -0.3619333153
 C         -4.2841641737       -2.8957059374       -0.4676346083
 N         -2.0377483834       -1.0123629050        0.0645616808
 C          0.7710268901        1.4370308265       -0.0225273555
 C          2.1408759047        1.5332592265       -0.0081835634
 C          6.7963278537        0.0507003707        0.0143286814
 C          7.7330352512       -0.6432187493       -0.7510792528
 C          9.0637678975       -0.2708024609       -0.7354567217
 C          9.4819490898        0.7901642488        0.0505016219
 C          8.5610051887        1.4748027072        0.8262491626
 C          7.2284359802        1.1094145391        0.8112944409
 H          4.6935870061        1.6100498364        0.1353912332
 H          2.9087736160       -1.7533843450        0.2366937315
 H          0.4970942493       -1.9356778301        0.2127122773
 H         -5.7452064940        0.3383782082       -1.2675838306
 H         -7.5870396309        1.9541342539       -1.4486163297
 H         -7.3644952043        4.2063744835       -0.4674662461
 H         -5.2753462171        4.8442492124        0.6809274391
 H         -3.4248514440        3.2108650983        0.8674990746
 H         -5.6891678104       -0.4079378447        1.3392721503
 H         -7.4785203688       -2.0874999837        1.5188220790
 H         -7.2266026944       -4.2886309241        0.4298386356
 H         -5.1732823637       -4.8006692586       -0.8390914418
 H         -3.3976450495       -3.1223672524       -1.0440361620
 H         -1.6948434106       -1.9553915826        0.1429513864
 H          0.1473067605        2.3139112922       -0.0904388300
 H          2.6077077054        2.5064414488       -0.0667166391
 H          7.4102231973       -1.4694246620       -1.3679215831
 H          9.7775961854       -0.8119897399       -1.3385676491
 H         10.5224331621        1.0784200007        0.0641693334
 H          8.8836384728        2.2947102797        1.4511192221
 H          6.5229110846        1.6331199867        1.4399498078
