54
 energy: -83.659786828912 gnorm: 0.000039862072 xtb: 6.7.1 (edcfbbe)
N            5.07032475203742       -2.83784383821071       -0.45505575462537
C            5.15637976876433       -1.70771017079464       -0.26530760263336
C            5.36979222311644       -0.33111556894074       -0.04229363253284
C            4.38042827400145        0.58628827878157        0.07744339450060
C            2.94996782249097        0.40585375967346        0.06832361657619
C            2.31606545364659       -0.83853210706672        0.16068547677626
C            0.94270726922343       -0.93697721229023        0.14851954335008
C            0.14372359706764        0.20490491371913        0.04404169230394
C           -1.29695522186464        0.14738242410631        0.02396692046134
N           -2.08814929236268        1.19743962221705       -0.03795806600187
C           -3.36412397259182        0.73971184205000       -0.03936331008757
C           -4.48081585591948        1.66676608666463       -0.15989085948643
C           -5.65840794112546        1.31373114428565       -0.81605884855415
C           -6.69409287586567        2.22245910724831       -0.92324324162326
C           -6.56819158182901        3.49341634077772       -0.38630404769645
C           -5.39260405807790        3.85789191022441        0.24959713722875
C           -4.35395318367230        2.95364537482961        0.35960780001982
C           -3.35871511670132       -0.65107017280935        0.03473532336594
C           -4.41394252449160       -1.64262974452047        0.13536675336625
C           -5.57346439858714       -1.37645582196559        0.86512951174300
C           -6.56476165296066       -2.33170299343254        0.97238442044426
C           -6.41681255538351       -3.56667713158123        0.36045365403115
C           -5.26726984319216       -3.84260675824054       -0.36042457276969
C           -4.27089250644470       -2.89113414075739       -0.47121280098292
N           -2.03531275571546       -0.99936816000825        0.06090470318118
C            0.77008212900758        1.45343257193557       -0.03744162850991
C            2.14011129282270        1.54921859820463       -0.02042942538966
C            6.79267936351049        0.04741607073718        0.00950788663037
C            7.72937005192622       -0.63828142560097       -0.76361041354315
C            9.06356456129279       -0.28013347954854       -0.72780124972780
C            9.48536898865451        0.75852933832051        0.08564419897689
C            8.56432355318436        1.43514719467950        0.86837811746105
C            7.22839347107336        1.08368837215356        0.83378999716731
H            4.69614424838239        1.61947594244826        0.16508106695509
H            2.90583227680200       -1.73555881605949        0.25431035796132
H            0.49439716353650       -1.91702116049177        0.22643398871378
H           -5.75582737300124        0.33043568261001       -1.25250138871197
H           -7.60360125886970        1.93934846450821       -1.43337688509325
H           -7.38154328721934        4.19934137929636       -0.47036519452547
H           -5.28707356908453        4.85161100361217        0.66051269719283
H           -3.43061017944832        3.22482706176933        0.84764534457235
H           -5.68344288399618       -0.41878945771950        1.35110117520566
H           -7.45709682114769       -2.11430158441602        1.54056036035845
H           -7.19423995584077       -4.31103680896245        0.44554650017790
H           -5.14680762628013       -4.80256858463827       -0.84099307008048
H           -3.38666806879848       -3.10875733587335       -1.05466420957236
H           -1.68923821115245       -1.94129260184830        0.13859573899069
H            0.14700368686973        2.33013719592683       -0.11339953575665
H            2.60778054912277        2.52156784600198       -0.08590777174703
H            7.40394652980757       -1.44718900357288       -1.40170404920364
H            9.77731158442700       -0.81525326060951       -1.33638418494688
H           10.52857588857443        1.03545456609054        0.11524387386811
H            8.88948571421825        2.23763863525276        1.51425695037660
H            6.52278862627559        1.60043870916172        1.46810856386382
