54
 energy: -83.596228005213 gnorm: 0.000166537869 xtb: 6.7.1 (edcfbbe)
N            4.88070519088032       -2.36365238089778        1.72920884969069
C            5.10088183892901       -1.36780018611985        1.18474608122471
C            5.37737532275022       -0.17420026378359        0.52552349458938
C            4.35066252059436        0.84421079079572        0.46468759379090
C            2.99072585394238        0.64926836554815        0.32693180849904
C            2.39355365818534       -0.62795634754544        0.08470681457980
C            1.04417443815494       -0.77251519456669       -0.00958972734981
C            0.17716783460651        0.33762380897757        0.11333406061135
C           -1.23677920487515        0.22233965120748        0.04438746148620
N           -2.08691087629668        1.23898159148774        0.10578124555746
C           -3.32984112626857        0.73094233866669        0.00907404942786
C           -4.48811602068559        1.61085282317855       -0.02215455203438
C           -5.62357276881331        1.30318647148183       -0.77064368183489
C           -6.69838754960296        2.17133677466561       -0.79078080362021
C           -6.65477380534377        3.35568768823667       -0.07267515443441
C           -5.52157203205251        3.67740049464004        0.65709368978169
C           -4.44285833953463        2.81506586042728        0.67929976720857
C           -3.26321596785518       -0.66664929264421       -0.10325065940970
C           -4.27611785273751       -1.69810750252990       -0.15278372564884
C           -5.47902636390085       -1.55201919351766        0.54378556510466
C           -6.43227230946491       -2.54944706561252        0.50637529903519
C           -6.20642228133464       -3.70882111949210       -0.21992732895401
C           -5.01450571431253       -3.86722221973550       -0.90791861534231
C           -4.05427122907428       -2.87489392788733       -0.87322575288196
N           -1.92775888998369       -0.95460191669618       -0.09685785820473
C            0.75466441682529        1.61614428015836        0.30842357817744
C            2.10018340385509        1.76938655143105        0.40248611708035
C            6.69172555837575        0.03053825509667        0.00888225477819
C            7.72572459104114       -0.89042294308098        0.28502110688933
C            8.99589486048913       -0.69048431844907       -0.20216964402836
C            9.28235266395485        0.42087789661766       -0.98693043648951
C            8.27397171633439        1.32938187810629       -1.28459824949108
C            6.99938251063911        1.14388569187548       -0.80056875618318
H            4.69930488163606        1.86380547305293        0.56993516007152
H            3.03362062231666       -1.48884312368634       -0.02555394675161
H            0.63669144040808       -1.75750250793808       -0.19014976407709
H           -5.65575065939717        0.39081969566531       -1.34799181430553
H           -7.57385674671909        1.92538697643573       -1.37413629033597
H           -7.49908384187886        4.02912982859884       -0.08884339011852
H           -5.48075791219338        4.60485335464332        1.20949145253871
H           -3.55144426430649        3.05331528017141        1.23838577924760
H           -5.64941827157230       -0.65704484617811        1.12255942103618
H           -7.35644256089514       -2.42535614046553        1.05099778228578
H           -6.95527129190264       -4.48585266068222       -0.24832745546757
H           -4.83335204179876       -4.76781119063630       -1.47607414371648
H           -3.13737590690107       -2.99910777292951       -1.43264889089698
H           -1.53534331472571       -1.88096770738312       -0.11487217014953
H            0.08458305427643        2.45818388374092        0.38074313367187
H            2.52716640341757        2.75005150339784        0.55621768584370
H            7.50649170737651       -1.75377799152770        0.89620191685870
H            9.77573728049956       -1.40204158968285        0.02640474597393
H           10.28100078480571        0.57479975371054       -1.36674050310393
H            8.49135122216634        2.18776995904093       -1.90380701068670
H            6.22146295426101        1.84709230963828       -1.05686731786908
