54
 energy: -83.596198426529 gnorm: 0.000069789389 xtb: 6.7.1 (edcfbbe)
N            4.84982499634203       -2.35795281935590       -1.81849194789081
C            5.07954092279018       -1.37368156218329       -1.25722045030469
C            5.36991982089116       -0.19447791784251       -0.57804528975399
C            4.35007499725774        0.82656340616732       -0.47726746056141
C            2.98882440509562        0.63831796544560       -0.34325478241208
C            2.37917904454161       -0.64098791540215       -0.14619294018152
C            1.02848003486278       -0.77601493832212       -0.05851464297916
C            0.17200610587368        0.34613359426037       -0.14212734159264
C           -1.24273004683346        0.24267428649520       -0.07948771814885
N           -2.08324394354948        1.26769023916188       -0.13870197426235
C           -3.33141401817488        0.77028452206366       -0.05960855566538
C           -4.48529249846698        1.65002936383484       -0.16625123922847
C           -5.67067059792419        1.23581051859232       -0.77240751194845
C           -6.73939626904995        2.10575935885009       -0.87414661424160
C           -6.64046584678953        3.39659119568858       -0.37994979468139
C           -5.45858735947339        3.82129579983710        0.20571150126854
C           -4.38573457250197        2.95746474005877        0.30799571105918
C           -3.27780155842993       -0.62678061562242        0.06795778296770
C           -4.29618160985874       -1.63539162572192        0.26239858772877
C           -5.44762870472533       -1.35376483191988        1.00299912123560
C           -6.40607647763620       -2.32727137941846        1.19940654544100
C           -6.23647288749327       -3.59617405008508        0.66662371984468
C           -5.09567533847353       -3.88811974550549       -0.06311244723512
C           -4.13024293972552       -2.92035165363051       -0.26156174304663
N           -1.94616783415633       -0.92978844853889        0.03628611143508
C            0.76198504169414        1.62551185997526       -0.29115615947879
C            2.10876792432035        1.76902078779839       -0.37909394361177
C            6.69475024484188       -0.00522322429344       -0.08158587129484
C            7.72048018792270       -0.92178228634417       -0.40005387368867
C            9.00070638648809       -0.73687005841628        0.06627948909771
C            9.30620888573501        0.35462292892192        0.87145784740161
C            8.30650900850722        1.25795875386899        1.21106162163045
C            7.02195486893310        1.08722727711920        0.74839685955333
H            4.70533965286602        1.84686386183184       -0.54720256746808
H            3.01069296166710       -1.51133357379054       -0.06586677892668
H            0.61144988588923       -1.76320254578959        0.08436260182441
H           -5.74688387284410        0.23741886739501       -1.17752709052311
H           -7.65363816983125        1.77700995707599       -1.34668190513153
H           -7.47998153103747        4.07156268222219       -0.45900011470887
H           -5.37503445519492        4.83039210581500        0.58218753850804
H           -3.45675143214057        3.27440915610566        0.75580980060670
H           -5.57341704781016       -0.37097139243372        1.43120627611890
H           -7.28998669287796       -2.09771325320653        1.77571843421385
H           -6.98949629329174       -4.35423777028661        0.82043477040716
H           -4.95891954149625       -4.87433705779377       -0.48179599031491
H           -3.25517178476208       -3.15218107056226       -0.85274871313182
H           -1.55989737589982       -1.85363677823216        0.13468685824048
H            0.09953352719058        2.47530981214293       -0.33881336973054
H            2.54515989880100        2.75019759744584       -0.49957757343248
H            7.48683498011507       -1.76954477751702       -1.02748191293715
H            9.77365200554434       -1.44471573395285       -0.19490617183791
H           10.31269420723881        0.49697863109099        1.23471175386224
H            8.53852725618475        2.10059178593293        1.84641022966984
H            6.25181822466078        1.78603914273700        1.03793023074593
