54
 energy: -89.385848188178 gnorm: 0.000050993268 xtb: 6.7.1 (edcfbbe)
N           -3.37223228397597       -2.77825355108895       -2.13269190093933
C           -2.41578021738041       -2.32067918103493       -1.69708692062635
C           -1.21088878693791       -1.75736350233981       -1.21873441152747
C           -0.00437828147140       -2.33503809438308       -1.59680550595833
C            1.20467346996058       -1.76336762359515       -1.21771595405797
C            2.40748839271991       -2.33312663635469       -1.69360059721514
N            3.36265989584825       -2.79570072667849       -2.12672967850702
C            1.21177420016813       -0.58728264756450       -0.43745353033641
N            2.40960258955008       -0.02358650003217       -0.02073161682701
C            3.44812984995753       -0.69623520224764        0.61011643328309
C            3.51463028380390       -2.01140628714779        1.04099709877559
C            4.66626394680901       -2.41897460685060        1.68812907142765
C            5.72019319933667       -1.53978536667812        1.91874753895879
C            5.64106505742146       -0.21813946434091        1.52673219058412
C            4.49467124251353        0.21264661754245        0.87369806439904
C            4.06807250004136        1.49175853294218        0.37378235442649
C            4.66635105843710        2.74312325213061        0.32529975053754
C            3.97395294174045        3.78590364771026       -0.25890396040435
C            2.71051329923235        3.58742144705813       -0.80766504272439
C            2.09737381429707        2.34862007080466       -0.77307214798199
C            2.77470017634391        1.30712444664696       -0.16037105770376
C            0.00065121342220       -0.01013257787172       -0.07255585315574
C           -1.21310811658357       -0.58180647511400       -0.43749539532690
N           -2.40855571922040       -0.01392394930280       -0.02001254304706
C           -3.45148553784938       -0.68500504335875        0.60544747820908
C           -3.52368480793438       -2.00110590560157        1.03260043303732
C           -4.67893817953516       -2.40683517470718        1.67441615707056
C           -5.73091391792864       -1.52498143021100        1.90369171703523
C           -5.64595911833017       -0.20240109206885        1.51607422765651
C           -4.49578938808924        0.22653043482216        0.86849755659585
C           -4.06296576647188        1.50589018223450        0.37462036972482
C           -4.65683310175701        2.75944553822427        0.32914209096272
C           -3.95881668874988        3.80225865463380       -0.24826869293770
C           -2.69405747769673        3.60162530474487       -0.79312605973490
C           -2.08534782292422        2.36053092073164       -0.76161507833423
C           -2.76842680397930        1.31872691427703       -0.15585727513099
H           -0.00636449405100       -3.22443335584664       -2.21023894429987
H            2.69958354177548       -2.70292663099530        0.88887985232908
H            4.74594686528800       -3.44161177228890        2.02418946946482
H            6.60504130796001       -1.89764498658619        2.42296294631045
H            6.44737889447071        0.47089707548757        1.72624871462920
H            5.65500668812141        2.89142091722301        0.73161810777434
H            4.42021121471502        4.76782135855644       -0.30379583249960
H            2.19920773755244        4.41545021319905       -1.27532133724264
H            1.12910980821662        2.20217205581515       -1.22641246844334
H            0.00278310468555        0.87014618720394        0.55252210569162
H           -2.71022110484622       -2.69479461105274        0.88190407005210
H           -4.76304409191552       -3.43016399977918        2.00726093680714
H           -6.61884865350218       -1.88151452198097        2.40339407482027
H           -6.45061700853484        0.48874895080103        1.71494436908387
H           -5.64638586263202        2.90940387855980        0.73264889851838
H           -4.40148797683987        4.78590885384937       -0.29059568372588
H           -2.17802093462252        4.42983953056201       -1.25521925174170
H           -1.11580125833759        2.21310100325791       -1.21177866940051
