  54
        -89.29510170
 N         -3.3914032313       -2.6478481992       -2.2103042621
 C         -2.4072157290       -2.2270564622       -1.7754386373
 C         -1.2131476456       -1.7260533134       -1.2623587270
 C         -0.0011813842       -2.2701004195       -1.6641579187
 C          1.2127347431       -1.7346420730       -1.2563244244
 C          2.4047827802       -2.2485858517       -1.7611614971
 N          3.3868807741       -2.6828521411       -2.1872106706
 C          1.2101605616       -0.5514632626       -0.3981177746
 N          2.4199237636       -0.0030254416        0.0167020058
 C          3.4436065055       -0.6944268934        0.6276332462
 C          3.4876608547       -2.0222249340        1.0352230274
 C          4.6468088467       -2.4709225087        1.6390102375
 C          5.7291927541       -1.6203690776        1.8519342086
 C          5.6759907909       -0.2854735367        1.4831694580
 C          4.5257867921        0.1866537606        0.8745571413
 C          4.1138819471        1.4790487276        0.3948761597
 C          4.7231820578        2.7218218113        0.3496166158
 C          4.0323981998        3.7796226997       -0.2194254296
 C          2.7589332547        3.6023821205       -0.7552008501
 C          2.1308282420        2.3713443533       -0.7195908693
 C          2.8061690516        1.3132808801       -0.1264248118
 C          0.0024700426        0.0178186472       -0.0338046890
 C         -1.2068178545       -0.5455486545       -0.4005267717
 N         -2.4162372117        0.0002799894        0.0191261483
 C         -3.4351926182       -0.6996817689        0.6285747674
 C         -3.4688693166       -2.0288886042        1.0323605941
 C         -4.6237215249       -2.4874323964        1.6369589338
 C         -5.7117575688       -1.6451023836        1.8536330720
 C         -5.6691579622       -0.3091145936        1.4874900960
 C         -4.5231402864        0.1730187071        0.8786079603
 C         -4.1199414143        1.4696298439        0.4021934774
 C         -4.7379140526        2.7083560495        0.3605584646
 C         -4.0543383166        3.7727287184       -0.2047873014
 C         -2.7786842249        3.6063413555       -0.7390542411
 C         -2.1418430993        2.3796325489       -0.7070583903
 C         -2.8108354915        1.3143700752       -0.1193592729
 H         -0.0024931621       -3.1251725438       -2.3261948151
 H          2.6473642145       -2.6832075173        0.8912629090
 H          4.7127002209       -3.5004834609        1.9555254283
 H          6.6201654708       -2.0083620064        2.3221572151
 H          6.5107715942        0.3735256637        1.6666996602
 H          5.7184001232        2.8593964208        0.7436717110
 H          4.4907927731        4.7559522310       -0.2612811447
 H          2.2547440947        4.4407895218       -1.2111260308
 H          1.1540563281        2.2346020180       -1.1564967369
 H          0.0039259967        0.8804079539        0.6182541100
 H         -2.6237779990       -2.6832641692        0.8852637166
 H         -4.6812761021       -3.5179937733        1.9517403382
 H         -6.5987878040       -2.0402841387        2.3251148332
 H         -6.5089268144        0.3429352856        1.6734090169
 H         -5.7341473645        2.8377116480        0.7548515944
 H         -4.5196124690        4.7459980922       -0.2438526636
 H         -2.2795154212        4.4502581235       -1.1906197117
 H         -1.1626453229        2.2521184679       -1.1415323418
