54
 energy: -89.298708612889 gnorm: 0.000071582251 xtb: 6.7.1 (edcfbbe)
N           -3.38740721427521       -2.65995449946919       -2.21187714516874
C           -2.40389653074035       -2.23679296753085       -1.77773410490395
C           -1.21108363847812       -1.73464187650099       -1.26440078536237
C            0.00234099684906       -2.27071532991253       -1.67241715506358
C            1.21479203735039       -1.73159728205487       -1.26544390025483
C            2.40863465359833       -2.23108719322548       -1.77889669649680
N            3.39322730517080       -2.65209042440436       -2.21265224694477
C            1.20901713345391       -0.54968943030508       -0.39918863379149
N            2.41882348926075       -0.00008916702898        0.01443500234544
C            3.44153061335805       -0.69219477644144        0.62714047839024
C            3.48350098525020       -2.02001956831101        1.03383338295382
C            4.64032927031093       -2.46878431795148        1.64205416554396
C            5.72131765718977       -1.61845007768148        1.86046656812768
C            5.67005588125437       -0.28389745273215        1.49095786452437
C            4.52269341385636        0.18780779165776        0.87667132783182
C            4.11267104708951        1.48075470592669        0.39429516478006
C            4.72402219206750        2.72234607927560        0.34799186251358
C            4.03522275460516        3.78040505321950       -0.22251523326887
C            2.76167004280138        3.60447265287831       -0.75755166284071
C            2.13186606585700        2.37446417816815       -0.72162652075529
C            2.80610888344432        1.31602968839140       -0.12812214923253
C            0.00016455963425        0.01445496348477       -0.03318003592012
C           -1.20768140462929       -0.55323248871376       -0.39739188650719
N           -2.41840852068130       -0.00789235593254        0.01892174255957
C           -3.43878538886121       -0.70433648073941        0.63070004959640
C           -3.47699805820860       -2.03331630071701        1.03402672547336
C           -4.63231823161417       -2.48679632291980        1.64162000978648
C           -5.71548310625502       -1.63996259175319        1.86283245206337
C           -5.66784597910107       -0.30424031113209        1.49709903478484
C           -4.52203937032742        0.17216045673706        0.88353679359093
C           -4.11564421803972        1.46757605710924        0.40479232845084
C           -4.73004541716030        2.70782702052888        0.36321841006739
C           -4.04434156337677        3.76947120756936       -0.20433610423148
C           -2.77090851479055        3.59836424188395       -0.74122102824384
C           -2.13812329945439        2.36976003741748       -0.71004193431626
C           -2.80914267276288        1.30771344135647       -0.11931618095850
H            0.00310769363225       -3.12212198580942       -2.33921681988750
H            2.64378353869676       -2.68090685352750        0.88549372298285
H            4.70482145745564       -3.49843705073759        1.95852590437925
H            6.60952551132183       -2.00604820882408        2.33594766236860
H            6.50391727459200        0.37511911629518        1.67856720420169
H            5.71928360239659        2.85880075049543        0.74222198765091
H            4.49510515877526        4.75604040377862       -0.26530922951308
H            2.25810526103333        4.44352517695464       -1.21331883655064
H            1.15444269810728        2.23910766061471       -1.15756236092385
H           -0.00052183938388        0.87653712638345        0.61944347133413
H           -2.63559718539502       -2.69160177817545        0.88369216099773
H           -4.69388694300890       -3.51746297733532        1.95535917832926
H           -6.60245774293983       -2.03122485433427        2.33761417140567
H           -6.50329074087676        0.35210293965006        1.68702409825738
H           -5.72524011078255        2.84054629864274        0.75888802478007
H           -4.50656230082987        4.74415903022481       -0.24332449739209
H           -2.26976163994420        4.44013792696396       -1.19462479318936
H           -1.16079367046922        2.23836096494057       -1.14735336968175
