54
 energy: -89.385659523226 gnorm: 0.000086277033 xtb: 6.7.1 (edcfbbe)
N           -3.31333047674833        3.76766309115901       -0.56069599534197
C           -2.38077653384307        3.13936641639409       -0.33813427027120
C           -1.19861003304191        2.39907972017547       -0.10945919431110
C            0.00033171895378        3.08424713064258        0.05154538478249
C            1.19912161831157        2.39380813504369        0.18951668412703
C            2.38143779415375        3.12574259138745        0.44289729851858
N            3.31410760874809        3.74609350505007        0.68638776129067
C            1.20565831131373        0.98330337245090        0.14731006239465
N            2.39175105418008        0.27396961443181        0.26948401206090
C            3.55649809496469        0.50161029793727       -0.45089595688455
C            3.78713113329412        1.37675227123759       -1.50003923691623
C            5.04338410400015        1.37157761828800       -2.07710914866262
C            6.04159131685876        0.50738961412699       -1.63685402606607
C            5.80276626585420       -0.39388733743313       -0.61823066512355
C            4.54909758078364       -0.40516450067801       -0.02290311434179
C            3.95521489367337       -1.21221755122294        1.00879681330378
C            4.43708447957887       -2.23756752366665        1.81047697790564
C            3.58981935514417       -2.80068510111254        2.74477966264086
C            2.28457370568180       -2.34187252952396        2.89568197767154
C            1.78319534238343       -1.32047460228808        2.10942050975962
C            2.62199409323046       -0.77133540022218        1.15264453445946
C            0.00002453450411        0.30605791046458        0.00500494537950
C           -1.20546311959931        0.98795247878194       -0.11451992324336
N           -2.39171573352080        0.28336833773790       -0.26031546876025
C           -2.62220644460074       -0.73182004357247       -1.17787479636567
C           -1.78357156695124       -1.24886047397865       -2.15251209983154
C           -2.28517688867838       -2.24337197859569       -2.97237875250647
C           -3.59049056191818       -2.70674566404937       -2.83677498693362
C           -4.43760083522913       -2.17496246200130       -1.88415154689512
C           -3.95549836551885       -1.17701984435104       -1.04873585968309
C           -4.54916133747062       -0.40477739839810        0.00939481232188
C           -5.80278712741667       -0.41317193168881        0.60486011011688
C           -6.04137584041647        0.45360901794469        1.65304760365479
C           -5.04297446645292        1.30241318621475        2.12186422289246
C           -3.78676066615233        1.32663908752776        1.54519483998236
C           -3.55636789870667        0.48701564188739        0.46736451291496
H            0.00044787060284        4.16452502955431        0.06964112462134
H            3.01893832275149        2.04053522296056       -1.86761368116353
H            5.25106618674766        2.05131855934900       -2.88943039636221
H            7.01138463662927        0.53714443159805       -2.11002738037515
H            6.56844204303267       -1.08098275592219       -0.29208320836220
H            5.45537925280904       -2.57923330539888        1.70628462402247
H            3.94401275047817       -3.60091425743360        3.37687425669441
H            1.64906780965493       -2.78859444028119        3.64558316108899
H            0.77530546131642       -0.96078631185756        2.25385199915306
H           -0.00009310195703       -0.77310681181049       -0.01306868570854
H           -0.77563263492966       -0.88471835577800       -2.28494123320908
H           -1.64980021759712       -2.66492735982144       -3.73681808416338
H           -3.94485660154533       -3.48539390446639       -3.49517849584162
H           -5.45593928738904       -2.51976114598756       -1.79132519425337
H           -6.56862379999834       -1.08882036219723        0.25596802851501
H           -7.01113881530179        0.46773024446201        2.12700816256318
H           -5.25046427905397        1.95464888019188        2.95647935231768
H           -3.01841270563282        1.97760894674482        1.93470496643944
