54
 energy: -89.298708454783 gnorm: 0.000082542113 xtb: 6.7.1 (edcfbbe)
N           -3.39472140770829       -2.69673973050830       -2.15416672357674
C           -2.40989185354540       -2.26573002391165       -1.73089613811833
C           -1.21577990971032       -1.75506120385072       -1.22914665768838
C           -0.00356930100179       -2.30514413348161       -1.62196760877068
C            1.21016816277063       -1.76002003593826       -1.22689468984476
C            2.40311947797803       -2.27615426686035       -1.72576755263265
N            3.38695513660021       -2.71087992936538       -2.14751540413785
C            1.20719710766571       -0.55722378206819       -0.39000316257403
N            2.41752089757451       -0.00224551945168        0.01463454965519
C            3.43487697425565       -0.68217331168071        0.64957365891588
C            3.47204062768686       -2.00071063868429        1.08581728591766
C            4.62360748089047       -2.43725259350396        1.71266393289367
C            5.70405600234268       -1.58358046472148        1.92044127950951
C            5.65744328758890       -0.25753096158369        1.52094111192899
C            4.51540853391871        0.20181533376547        0.88763795237113
C            4.11056748917457        1.48449386359166        0.37449531433861
C            4.72343027278174        2.72435161353363        0.30658801541640
C            4.03980900722691        3.77073387175792       -0.29103109160580
C            2.77009449737955        3.58457453010947       -0.83176951477545
C            2.13881432642933        2.35615056709058       -0.77453414218768
C            2.80756934389549        1.30997052544973       -0.15363350740447
C           -0.00029177620408        0.01981056542197       -0.03995407031120
C           -1.20949838273193       -0.55266042332410       -0.39170307467528
N           -2.41822949345927        0.00630657748396        0.01213251967347
C           -3.43865793327888       -0.67053493423401        0.64549247409555
C           -3.48138484330215       -1.98957054146459        1.07972175734653
C           -4.63506070241217       -2.42244381668118        1.70524047016743
C           -5.71217379087065       -1.56475115258601        1.91376548321583
C           -5.65998988476862       -0.23829278452831        1.51632657783051
C           -4.51577955632303        0.21740758785109        0.88431345709049
C           -4.10554378076893        1.49923598822215        0.37335846754591
C           -4.71338623989398        2.74165468057438        0.30715043320379
C           -4.02530059283632        3.78622162711632       -0.28851070346220
C           -2.75613067652598        3.59578295055475       -0.82904791284668
C           -2.12980621791040        2.36475371887504       -0.77344350911513
C           -2.80298121427542        1.32030807613587       -0.15438548972575
H           -0.00474075890343       -3.17296375929606       -2.26726180934503
H            2.63264072957101       -2.66380277242392        0.94584807135653
H            4.68420880628106       -3.45967798833052        2.05247424423176
H            6.58798698897470       -1.96151907986896        2.41141275309464
H            6.49066380620072        0.40456006456832        1.70038296076152
H            5.71584218359905        2.86831486097412        0.70530533497595
H            4.50082255825072        4.74494549434044       -0.35074494936190
H            2.27075127677616        4.41424987719128       -1.30884605019425
H            1.16448769697872        2.21242080643984       -1.21471824260405
H            0.00094756328696        0.89752992575523        0.59147932115410
H           -2.64459501942693       -2.65584653921561        0.93926332853495
H           -4.69996413340901       -3.44514655415002        2.04341861509852
H           -6.59788059724717       -1.93987456614066        2.40369455576375
H           -6.49061886978030        0.42688899310109        1.69635335124476
H           -5.70537209142381        2.88898260693439        0.70569866323170
H           -4.48234171115430        4.76238627093144       -0.34684177987963
H           -2.25327003721240        4.42417172154319       -1.30466185742318
H           -1.15589870030519        2.21781840207926       -1.21348923786553
