  104
       -168.06021443
 C         -8.2748533723        3.0775199269       -0.8269670152
 C         -7.0761507970        3.8620414934       -0.2588300546
 C         -7.5254834030        5.2583917449        0.2133892687
 C         -6.0465148958        4.0250252737       -1.3564698456
 C         -6.3948855591        4.6794821603       -2.5305870093
 C         -5.5079554957        4.8207131545       -3.5814163706
 C         -4.2390806677        4.2722739538       -3.4793481598
 C         -3.8652097762        3.6200528672       -2.3263573212
 C         -4.7460099121        3.5122243746       -1.2404960079
 N         -4.3339772360        2.8703018992       -0.0885365155
 C         -2.9957357957        2.4063500264        0.0029719700
 C         -1.9538113584        3.3419332859        0.0610083378
 C         -0.6325642465        2.9273405533        0.1772838171
 C         -0.3718117884        1.5709558209        0.2187998869
 C         -1.4239210506        0.6099827944        0.1116713826
 C         -2.7480682995        1.0428013577        0.0261791283
 C         -0.8124653111       -0.6694983860        0.1181698548
 C         -1.3053945574       -1.9731813272        0.0422596721
 C         -0.4024696702       -3.0231842030        0.1077497696
 N         -0.8737711586       -4.3571480491        0.0092393412
 C         -0.5231587717       -5.1098157500       -1.0958285806
 C          0.2220621926       -4.5211984833       -2.1279515651
 C          0.6026232513       -5.2503363384       -3.2314601626
 C          0.2338521545       -6.5822224769       -3.3392061876
 C         -0.5379212728       -7.1551259427       -2.3457797224
 C         -0.9364516610       -6.4443809153       -1.2213428719
 C         -1.8194236121       -7.1136259769       -0.1901351712
 C         -3.1278870011       -7.5493445678       -0.8775034740
 C         -1.0796148356       -8.3400598476        0.3781042632
 C         -2.1540450482       -6.1837357221        0.9562559022
 C         -2.9531075030       -6.6401758394        1.9960540581
 C         -3.2547876432       -5.8507400739        3.0899575520
 C         -2.7245539511       -4.5729038482        3.1728737636
 C         -1.9294006774       -4.0934380126        2.1568018305
 C         -1.6567149929       -4.8732786010        1.0232017368
 C          0.9719053007       -2.7998034368        0.2727275974
 C          1.4783441479       -1.5091116694        0.3494672931
 C          0.5936122908       -0.4523985633        0.2438814326
 N          0.8340563559        0.9051042749        0.2984488608
 C          2.0947458220        1.4899691425        0.3738663568
 C          2.3489936982        2.5552453781        1.2740884781
 C          3.6027895247        3.1121122513        1.3405439440
 C          4.6284011239        2.6587978374        0.5155266251
 C          4.3791429990        1.5955517227       -0.3650645737
 C          3.1340438478        1.0144238671       -0.4242197797
 S          5.7019329419        0.8929301211       -1.3277914905
 O          5.3073002521       -0.4589336699       -1.6703388582
 O          6.0658523998        1.7339274030       -2.4379213449
 C          7.0251433977        0.7892048907       -0.1309915408
 C          7.7567297012       -0.3812927978       -0.0138462786
 C          8.7473820239       -0.4825556913        0.9457009849
 C          8.9902990097        0.5834486440        1.8115410678
 C          8.2420487566        1.7413542433        1.7104770051
 C          7.2669269172        1.8529399308        0.7315297052
 S          6.2628458329        3.3288126824        0.6363282876
 O          6.3721772029        4.0281901754        1.8986824135
 O          6.6040233796        4.0931296499       -0.5364410600
 C         -5.1858932025        2.6753715582        0.9811847910
 C         -4.7062456654        2.0668396205        2.1502173432
 C         -5.5366599972        1.8415712319        3.2245863357
 C         -6.8646334407        2.2334457148        3.1645000322
 C         -7.3321843439        2.8723289673        2.0313592325
 C         -6.5183839042        3.1122807050        0.9321918367
 H         -8.7177476997        3.6021492686       -1.6685432245
 H         -7.9490835178        2.0958883270       -1.1668412441
 H         -9.0429506169        2.9417282931       -0.0709549911
 H         -7.9378023001        5.8320343293       -0.6116824103
 H         -8.2841842967        5.1813023938        0.9867666240
 H         -6.6755934653        5.8033863935        0.6195447466
 H         -7.3873207314        5.0902374206       -2.6346327623
 H         -5.8095437807        5.3403660877       -4.4773340525
 H         -3.5422381023        4.3481426410       -4.2996610172
 H         -2.8836097468        3.1797996007       -2.2575278699
 H         -2.1898577164        4.3937881342        0.0275203855
 H          0.1612299616        3.6548891035        0.2231540928
 H         -3.5612978177        0.3369809706       -0.0439995679
 H         -2.3598799830       -2.1635009187       -0.0856444595
 H          0.4976770645       -3.4818889660       -2.0576443656
 H          1.1827163820       -4.7775079309       -4.0086299323
 H          0.5319837869       -7.1653428989       -4.1963763003
 H         -0.8367205643       -8.1863465687       -2.4551194704
 H         -2.9266797590       -8.2356513025       -1.6949598823
 H         -3.7894946538       -8.0454712569       -0.1731085346
 H         -3.6434035626       -6.6788990419       -1.2792973705
 H         -0.8245022588       -9.0390391506       -0.4132383901
 H         -0.1599381920       -8.0243497226        0.8671875968
 H         -1.6939783382       -8.8613569137        1.1066306987
 H         -3.3512373734       -7.6426287784        1.9580859903
 H         -3.8830367237       -6.2357510638        3.8778651186
 H         -2.9244607671       -3.9522125328        4.0326312306
 H         -1.5003058258       -3.1075614056        2.2363558245
 H          1.6352120131       -3.6462507760        0.3517208081
 H          2.5331555661       -1.3488194595        0.5018435282
 H          1.5624036682        2.8927895776        1.9299326064
 H          3.8309965853        3.9059322320        2.0342498872
 H          2.9818341698        0.2069671825       -1.1209244576
 H          7.5268128833       -1.1932329820       -0.6862188225
 H          9.3294192686       -1.3876416528        1.0265951842
 H          9.7606086424        0.5031265125        2.5630024453
 H          8.3891617305        2.5777302413        2.3759451986
 H         -3.6688061670        1.7800489948        2.2102158776
 H         -5.1453001864        1.3676408739        4.1115369222
 H         -7.5258314803        2.0592284656        3.9988527305
 H         -8.3617444154        3.1956690736        2.0095315104
