128
 energy: -201.520389959505 gnorm: 0.000116203439 xtb: 6.7.1 (edcfbbe)
O            6.81428938341019       -2.51496724947553        0.63610158286154
P            7.27183749002274       -1.24903816566898        1.21995604757846
C            7.77150282208865        0.00133668587101       -0.00127698853710
C            8.18754853149891       -0.46738954353059       -1.23827527543154
C            8.65130512047834        0.41794958958615       -2.19399486483607
C            8.71726677438745        1.77076851400228       -1.90440212868985
C            8.29336041514581        2.24102205016901       -0.67083328500047
C            7.81176222997745        1.36012180582060        0.28040218721925
C            8.72996384141900       -1.45096836024195        2.29268456434711
C            9.12837583615210       -2.75114342308930        2.56622702899439
C           10.22569638955591       -2.98586482714699        3.37555045054986
C           10.92721933512689       -1.91798898036745        3.91014604171387
C           10.53397312736691       -0.61765542017441        3.63276618067009
C            9.43776482398595       -0.38059293926190        2.82408883226438
C            6.01716116158319       -0.44441325175204        2.26143202676358
C            6.09286293730402       -0.26354784812520        3.64143569106277
C            5.01089974220388        0.23677080343335        4.35859027024727
C            3.81269203881733        0.54962185828973        3.74438387096963
C            3.70852915178825        0.36820789951367        2.36526851453182
C            4.82305703532674       -0.11013301564222        1.64851405509240
O            4.56293608796143       -0.21526014178608        0.32022230464068
C            3.26517880810510        0.15029649646145        0.15885496245884
C            2.53381562330694        0.14076652267492       -1.01858854325988
P            3.16497049626225       -0.31461616454546       -2.66098240600008
O            2.08454421465114       -0.71687591410807       -3.57319947293999
C            4.39705502747701       -1.62644883160936       -2.40518588371333
C            4.09012298312549       -2.66546564265061       -1.53902034187606
C            4.95070145287057       -3.73994785889530       -1.42164990877402
C            6.10665763085440       -3.78384950532906       -2.18303320393796
C            6.40417996850225       -2.75364563284023       -3.05909309107056
C            5.55061314217030       -1.67016616064672       -3.17113692513879
C            4.05147533072547        1.16949379691480       -3.22371850397818
C            5.08103246762339        1.74594066776724       -2.49113790536859
C            5.66424527939747        2.91450507251390       -2.94408998730842
C            5.23323382538275        3.49997205107377       -4.12498755574092
C            4.21154769164408        2.91980238272233       -4.85866084692604
C            3.61596273832764        1.75774400161192       -4.40280594135222
C            1.19651911607047        0.51663817503924       -0.94192091567481
C            0.58952105223092        0.89839038338047        0.25820827342623
C           -0.83496712516219        1.24814750288799        0.28284250979954
C           -1.74776652584588        0.56401232025390       -0.52053891970810
C           -3.09260583846630        0.86539141136437       -0.47520647187021
C           -3.57235952515637        1.85688059911304        0.37617312825219
C           -5.04295773596097        2.20387653235863        0.38557232496945
C           -5.93221206056858        0.99529690297539        0.25376727879579
C           -5.59340933993178       -0.20604115331078        0.89608242235454
C           -6.41507765899757       -1.30014288365401        0.83468985711359
C           -7.64156926186463       -1.23168814163098        0.14308552987183
N           -8.46869052152530       -2.33310467925475        0.07087868598614
C           -9.84364748151791       -2.32597310751847        0.24057185361687
C          -10.67964445536260       -1.28213621531812        0.59116553638209
C          -12.04099737697391       -1.55380914517954        0.73304926807483
C          -12.53451322811437       -2.84231216536824        0.53872091100722
C          -11.69949650460935       -3.90240822797340        0.22356310074413
C          -10.33243686001518       -3.65836039507965        0.08507122669517
C           -9.20373245788555       -4.48455079790855       -0.17874375870962
C           -9.03895331191926       -5.84760422754109       -0.42782486942594
C           -7.76656438302850       -6.32329984525337       -0.70429782602628
C           -6.66248837132149       -5.47541732980769       -0.75257169762184
C           -6.79978917312774       -4.11021603754042       -0.49826610424978
C           -8.05891904052504       -3.63205229267091       -0.18577655117877
C           -8.00127756591853       -0.01608986595753       -0.47249695471580
C           -7.15997897514033        1.06542858597304       -0.41858255530246
C           -5.50787005838598        2.92077136912136        1.64205934694123
C           -5.52490922967010        2.45955406265917        2.94063853769057
C           -6.02278547191517        3.28904774581451        3.93574778183880
C           -6.51089999131511        4.55418475937368        3.62899731294573
C           -6.50624356463779        5.01935299964025        2.32669309010759
C           -6.00102238922533        4.20024026145295        1.32641160160929
C           -5.85595181435167        4.41568258861136       -0.09728744318414
C           -6.16500222038754        5.51238631012552       -0.89048428249817
C           -5.91265638048644        5.44131580076342       -2.24934415106346
C           -5.35796395447822        4.30051394779974       -2.81257341852109
C           -5.04394350496929        3.19906285474623       -2.02463480840687
C           -5.30040091457090        3.26084132884256       -0.67371243856978
C           -2.66371466659709        2.56095632546721        1.15720369136480
C           -1.31768986413582        2.25734489333126        1.11592632372272
C            1.33881790332413        0.91478642335203        1.43354343699080
C            2.67565337377553        0.53130779167279        1.38501092890159
H            8.12780746740049       -1.52830728512907       -1.43189406804083
H            8.96953048393453        0.05588617015892       -3.16058804400834
H            9.09392943066210        2.46250573341351       -2.64403561021582
H            8.33953687072348        3.29825712901775       -0.44908516043529
H            7.45838699872656        1.72468367650236        1.23575727813063
H            8.56393307957805       -3.56416068904360        2.13289826526304
H           10.53452493197857       -3.99857847837885        3.58982037481849
H           11.78431424283291       -2.09682064212145        4.54289273173857
H           11.08551815531620        0.21304065864363        4.04902097699406
H            9.13194202095804        0.63161115038022        2.60366354240191
H            7.00553070553995       -0.52463253580684        4.15662177414439
H            5.10980515214550        0.36770283973953        5.42629512685409
H            2.97320729028627        0.91715698086971        4.31376263841901
H            3.17556522898962       -2.62049426049882       -0.96160490180567
H            4.72538029917858       -4.54176790772228       -0.73495140878996
H            6.78001731452892       -4.62307763762064       -2.08946165045858
H            7.30317430042509       -2.79459135266654       -3.65877296078537
H            5.77419331577826       -0.85618115457941       -3.84870182060924
H            5.42266632412966        1.27525149951312       -1.58051855278744
H            6.45811081418466        3.37320508134852       -2.37430642249751
H            5.69604868704700        4.41255451062089       -4.47227539573989
H            3.87828405819895        3.37572275794129       -5.77970788675970
H            2.81117034230031        1.28501297505106       -4.94734436602690
H            0.63055969323609        0.50761603141147       -1.86158222404554
H           -1.39959674474182       -0.22617024691102       -1.16828361133504
H           -3.78375182714180        0.31633148494246       -1.09894771104608
H           -4.66603386507825       -0.26730482756167        1.44615853092915
H           -6.16128081877882       -2.20545784218018        1.36482936601815
H          -10.29926269906539       -0.28910157938185        0.77435797206576
H          -12.71416835416496       -0.75636415317662        1.00386046622881
H          -13.59414356469803       -3.01927302785425        0.65166995539717
H          -12.09224990573119       -4.89857027193499        0.09374256460338
H           -9.88827787231429       -6.51232066371493       -0.41173260247355
H           -7.62707284151705       -7.37598806760477       -0.90215494710087
H           -5.69044795946014       -5.87259753241558       -0.99666176311734
H           -5.94585051088971       -3.45451360976861       -0.56847434644709
H           -8.91520867926600        0.03208577108871       -1.04459199736819
H           -7.43617993022964        1.98049618638550       -0.92056622710967
H           -5.15089229640683        1.47647261237005        3.18610549677272
H           -6.03197731243039        2.94732504303834        4.96009817793136
H           -6.89905747612890        5.17915153042592        4.42000032860600
H           -6.88831806632301        6.00140057060001        2.09072211651147
H           -6.59281324339499        6.40294914882634       -0.45482194252786
H           -6.14743529193964        6.28542225425069       -2.88139920342156
H           -5.16569587535880        4.26765504662868       -3.87456136057889
H           -4.60809438602193        2.31618120980711       -2.46800668021247
H           -3.01596931879994        3.35047445032250        1.80520427631186
H           -0.62676889540013        2.82407969984946        1.72238034412729
H            0.88492581049574        1.17538146148244        2.37681084571027
