128
 energy: -201.526739232482 gnorm: 0.000083756794 xtb: 6.7.1 (edcfbbe)
O            9.25015984671156        1.70859788394053       -1.38730872396418
P            8.00153143697122        0.96207934831403       -1.18743370441877
C            7.96164069646887        0.14088010406993        0.43729662571822
C            8.69539220967285       -1.02787595830222        0.58205882759790
C            8.79234917838603       -1.63413159406366        1.82149276428802
C            8.17001170102707       -1.05990942590098        2.91858959762499
C            7.46548849245147        0.12448184237397        2.77965525303488
C            7.35951646692433        0.72771336878769        1.53883249170774
C            7.74819988130309       -0.32981555342507       -2.44510617373076
C            6.54869864752101       -1.01036990491167       -2.60322172885662
C            6.42419568215755       -1.95331517164621       -3.60689233192665
C            7.49357877369559       -2.22390173521938       -4.44587038114728
C            8.69139666330822       -1.54531965679437       -4.28842680778061
C            8.81595531101422       -0.59387150299739       -3.29242017048773
C            6.52794546692148        2.02010586498093       -1.29922517145031
C            6.71171015957167        3.25262498049339       -1.91705639882315
C            5.66241579626106        4.13264450012600       -2.13617836443502
C            4.37235400586892        3.80285630212135       -1.74964668195714
C            4.16173576197102        2.58471025312633       -1.12679326104997
C            5.23671705644084        1.70026578262279       -0.89546156297273
O            4.82530780576751        0.57125201840957       -0.25785081778184
C            3.48603979483964        0.69501532230609       -0.07707849280555
C            2.59825916265472       -0.21725117089978        0.53903537607872
P            3.03799577335540       -1.77317569938743        1.36433656380091
O            1.84373630118013       -2.55220393470818        1.72180133220567
C            3.99624360710453       -1.30864547788178        2.84547736210041
C            4.69191216853489       -2.31332204257778        3.50376534680788
C            5.29114292341475       -2.05503338740837        4.72239744378834
C            5.18540588002073       -0.79530772420000        5.29071029323737
C            4.48507306685325        0.20552727741261        4.63745658910827
C            3.88737615168696       -0.04985058257582        3.41497507333465
C            4.17026001593424       -2.69950991795156        0.28345319471387
C            3.58719619611443       -3.63475182370252       -0.56146563039330
C            4.38124805317175       -4.42318426281431       -1.37359836815582
C            5.75949541597984       -4.28347490190959       -1.33187744516411
C            6.33958587721099       -3.34860090236041       -0.49001847228578
C            5.54857780708390       -2.54838103202661        0.31502636022645
C            1.27192370729210        0.10819608710855        0.56893965783805
C            0.71485834935318        1.31839413286137        0.03160559620773
C           -0.65936136461099        1.58438970762492        0.07560785947512
C           -1.60343096343645        0.70420741740994        0.72225941690498
C           -2.93772148669568        0.95581885857878        0.72465037780940
C           -3.48103693349337        2.09400507775209        0.08406410994277
C           -4.95519088234558        2.38272991170230        0.15219722581308
C           -5.80535359208075        1.13705459457203        0.05631366236625
C           -6.99187413733979        1.02147938391946        0.76952360103055
C           -7.78930018075667       -0.09841366662839        0.63657175236122
C           -7.41809567202882       -1.12218347655281       -0.23010390580560
N           -8.22317819931737       -2.26011375645922       -0.36722965456369
C           -9.58184346189580       -2.26355299540156       -0.60959746517720
C          -10.44380769236111       -1.19694509924620       -0.82351857724752
C          -11.77248965040523       -1.48280737738481       -1.07445347764841
C          -12.23776546967574       -2.79471687985336       -1.12213521359700
C          -11.37924430926478       -3.86123173961147       -0.93484185834856
C          -10.04045183678438       -3.59950290900834       -0.68119285562570
C           -8.89230053351725       -4.43689572948198       -0.46472711104499
C           -8.71071274047470       -5.81115582349057       -0.40276000836672
C           -7.44319947595381       -6.30001484803375       -0.14974766497572
C           -6.36937795587302       -5.43694942576241        0.05493424882965
C           -6.52556636527125       -4.06491454351653       -0.00136824890227
C           -7.79165641145516       -3.56856134738377       -0.27908290847077
C           -6.23845644482045       -1.00465367315424       -0.96024783754382
C           -5.44353902280838        0.11371692767643       -0.81426546063014
C           -5.17275425356644        3.18574959623245        1.42389103112905
C           -4.91650752333631        2.81890362653520        2.72865206523121
C           -5.17005735951827        3.73639337930882        3.73814247539414
C           -5.65931506550015        5.00144217590981        3.44438178938237
C           -5.91013230358329        5.37789968264435        2.13531974840041
C           -5.66458037546860        4.46526557957658        1.12239302879303
C           -5.83659501048043        4.56994405922370       -0.31609836292210
C           -6.31047935942589        5.60827243128982       -1.10171246141227
C           -6.36934289834060        5.42889391359145       -2.47411933320625
C           -5.96526811214859        4.23509641861296       -3.05232890236647
C           -5.48985449801423        3.19056955800976       -2.27018143915371
C           -5.42442821809165        3.36594601174268       -0.90515580033432
C           -2.57855743452796        2.99827726139919       -0.51337255207792
C           -1.23954282644068        2.76334665334251       -0.52486639293283
C            1.66553208251023        2.24578866872145       -0.55827899880599
C            2.99333903236986        1.91632996239364       -0.60196094250830
H            9.18969574535211       -1.44661571578173       -0.28535989953053
H            9.35532062392898       -2.54919286615170        1.93596293611793
H            8.24267666647598       -1.52970743028066        3.88820882922928
H            6.99928113249157        0.57832191076491        3.64108802590538
H            6.81877373648700        1.65706881108329        1.42535797587466
H            5.72057625671837       -0.81065201323193       -1.94224758138734
H            5.48961114649075       -2.48035535329504       -3.73245876424936
H            7.39102541044686       -2.96299712611866       -5.22713397668747
H            9.52371364174842       -1.75485837683206       -4.94447503454369
H            9.73316738105863       -0.03861824328447       -3.15617107006695
H            7.71654957239997        3.50930010315584       -2.21967072491596
H            5.85292607896948        5.07982604107240       -2.61722272824956
H            3.54808554903177        4.47684700506978       -1.92504781845095
H            4.74826658706888       -3.29609210761999        3.05451389347190
H            5.83047695340794       -2.83738782289393        5.23644011482759
H            5.64562404683302       -0.59466301823595        6.24747678455093
H            4.39776652234618        1.18547810465316        5.08492449828736
H            3.32881071121751        0.72401506129479        2.90587818933387
H            2.51158678635342       -3.74200933764416       -0.55316534529487
H            3.92935601475005       -5.15238326705783       -2.03052671376386
H            6.38497256536777       -4.90522525802394       -1.95579772503169
H            7.41351209529613       -3.24368669308043       -0.45844235560317
H            5.99553219994097       -1.81564141497904        0.97013256854923
H            0.62409688447592       -0.62039576866677        1.03001926698261
H           -1.24482626879131       -0.17448552298333        1.23138475671463
H           -3.60854600673188        0.26864398729004        1.22104770067895
H           -7.28964003434857        1.80980705539202        1.44505966882912
H           -8.69479102521386       -0.19322784451375        1.21694371934745
H          -10.08847637341199       -0.17769418781085       -0.80725299679161
H          -12.46428710736925       -0.67051919236389       -1.24116093463618
H          -13.28378984063793       -2.97673470277346       -1.31827239994080
H          -11.73747251699428       -4.87806634480004       -0.98843035313320
H           -9.54560907441161       -6.48035357046311       -0.54531476117849
H           -7.28016310376512       -7.36614147157981       -0.09978507134546
H           -5.39360321519309       -5.84811859020200        0.26623880407090
H           -5.69078722254279       -3.40427441926678        0.17660673574078
H           -5.95969920228943       -1.78498401098203       -1.65248450729445
H           -4.52747458412553        0.19458650752325       -1.38122988564674
H           -4.53146457896862        1.83825001650048        2.96461552387183
H           -4.98259789225887        3.46218122259369        4.76575530223991
H           -5.84457939876517        5.70013127692210        4.24701676953197
H           -6.28888163822209        6.36338778760125        1.90856716547305
H           -6.62706768647485        6.53841019544456       -0.65391716603299
H           -6.73514976553111        6.22778369392269       -3.10249953378669
H           -6.02065619331317        4.11513144049129       -4.12422945209824
H           -5.17673542261164        2.26327461644235       -2.72649572785929
H           -2.96828184899572        3.89212173379750       -0.97943355559461
H           -0.59896695664735        3.47954109568620       -1.01124762640865
H            1.34268824983093        3.19060410152917       -0.95737202494800
