128
 energy: -201.629868718148 gnorm: 0.000049263827 xtb: 6.7.1 (edcfbbe)
O            7.63893616544252        0.63382459045367       -0.52411442839772
P            7.71726890589619       -0.12494598265083        0.72966206923333
C            9.23156523703480        0.21320686018269        1.67943422436817
C            9.69043980861100       -0.64190106010854        2.67354586011593
C           10.84831725218890       -0.33104398373178        3.36261288615759
C           11.54798633310224        0.82729521906780        3.06021489539127
C           11.09424178175892        1.67632694443914        2.06414822963937
C            9.93563937423492        1.36821062304827        1.37339708245715
C            7.74205431885230       -1.93538995755359        0.52193703012890
C            8.75943888754111       -2.43339531131884       -0.28162295928225
C            8.91067536610080       -3.79721329340624       -0.44247384459029
C            8.03767089991258       -4.66562835857517        0.19510520517922
C            7.01180303424283       -4.16895050106914        0.98124586543538
C            6.86405397805887       -2.80282515222332        1.15138469808527
C            6.35040350008022        0.21719969231497        1.88772027459645
C            6.47690320905445        0.39329799036159        3.25903740794037
C            5.37458027300682        0.68477236429439        4.05648140169055
C            4.10808973449432        0.82115354827510        3.51844851845999
C            3.95329417754807        0.65765903770684        2.14843263263062
C            5.07709930981202        0.35202612427798        1.35401733321239
O            4.75304594668194        0.22013878601955        0.04894109628796
C            3.41976613210222        0.46003442630988       -0.03724073069291
C            2.65082825051498        0.45240497917680       -1.18915706687674
P            3.31776393620885        0.14353947322541       -2.85625964162485
O            2.25472395877008       -0.19123759625218       -3.81333511515753
C            4.51941292361474       -1.20465475047050       -2.61696001483225
C            5.77399271835958       -1.19666733242311       -3.20412310881220
C            6.59256334439179       -2.30581213050393       -3.08360885760761
C            6.15577382247556       -3.42028265312900       -2.38866319886234
C            4.90413382034569       -3.42514565756381       -1.79496590102347
C            4.08470914665722       -2.31870692016159       -1.91233492133008
C            4.24258511788497        1.64730627339241       -3.27931250558406
C            3.74176849822660        2.41642255721661       -4.32085447388438
C            4.38322239108913        3.58609939476634       -4.68669044165774
C            5.52393544438597        3.98527623478479       -4.00901174142078
C            6.02262978731693        3.21565203604352       -2.96922089498528
C            5.38555880187375        2.04588006421522       -2.59662852807926
C            1.29888147505693        0.71508915000455       -1.05228017560415
C            0.70728329012370        0.98132783459173        0.18849298609319
C           -0.73513331005067        1.25447777165723        0.26989747548806
C           -1.63954072711147        0.55566978370012       -0.52653053836215
C           -2.99320925367744        0.81531891170482       -0.45208258419904
C           -3.48674162758185        1.77617289614058        0.42380404394058
C           -4.96397318535886        2.10933695471005        0.44262048681963
C           -5.84447694168630        0.89125130908249        0.25836609156722
C           -7.03483339630402        0.97213233157084       -0.45290035125996
C           -7.86123315564347       -0.12805698567517       -0.57668283084650
C           -7.51907977316010       -1.33225542216022        0.02963224820501
N           -8.35348562864630       -2.45136038943692       -0.09486591423807
C           -7.95807101815289       -3.71209943231721       -0.49507843868101
C           -6.70724273564606       -4.16138422367148       -0.89375600201206
C           -6.58866479649293       -5.48355369599809       -1.27663406131385
C           -7.68493745781787       -6.34332270640988       -1.27358420722243
C           -8.93631036579391       -5.89645733818845       -0.89962250864138
C           -9.08097555146694       -4.57120715054103       -0.51071712796047
C          -10.20465842366812       -3.78123155742145       -0.09215187416913
C          -11.55044723829962       -4.06212709770001        0.10360758102785
C          -12.38005976042302       -3.05054713483927        0.54399085922263
C          -11.88044320371201       -1.77596029570208        0.80281179991977
C          -10.54579505730355       -1.47187267898540        0.61566289176032
C           -9.71155211334783       -2.47839768562117        0.15046338726340
C           -6.33847280232901       -1.41372674698434        0.76183338340974
C           -5.51294103333804       -0.31252981478962        0.87115468216706
C           -5.41034827958572        2.81355306115360        1.71041009868846
C           -5.44444568352219        2.32590289632292        2.99907173653055
C           -5.91166707133401        3.15303694140749        4.01172778484835
C           -6.34063395604105        4.44216000936943        3.73515611967001
C           -6.31462457470559        4.93543283090627        2.44071404338272
C           -5.84863174370555        4.11479893177502        1.42691313828976
C           -5.70554016694352        4.35154159028396       -0.00044096275149
C           -5.97991172978663        5.47219155236394       -0.76682613874594
C           -5.73949862004725        5.41869889037443       -2.13021863302803
C           -5.23200522775290        4.26938307619187       -2.71686048748457
C           -4.95453951701008        3.14349483813505       -1.95331393531080
C           -5.19906643152261        3.18884519340608       -0.59762204005122
C           -2.58647169010469        2.48391852881628        1.20956696779024
C           -1.23180404746252        2.22334239099428        1.13781215443249
C            1.49366296094590        0.98924566899812        1.33560783832772
C            2.85205110302603        0.72880051755905        1.22323431075091
H            9.14409121120030       -1.54836259818971        2.89594634917936
H           11.20937864467920       -0.99341585109447        4.13596339148844
H           12.45254283185517        1.06456014781893        3.60067523752898
H           11.64436062456713        2.57494862312942        1.82661513207573
H            9.56360175500217        2.00687731573132        0.58507608564367
H            9.42520571879692       -1.73435626003085       -0.76996018588499
H            9.70744782547959       -4.18619929308088       -1.05966478491855
H            8.15597651819303       -5.73290965646931        0.07606636659473
H            6.32940097142726       -4.84816167435245        1.47137944098021
H            6.07278698893745       -2.41216061219963        1.77617653517794
H            7.45289556810414        0.30664401633066        3.71289751901049
H            5.51808847904497        0.81201121335677        5.11907220082918
H            3.25958796635354        1.05282623777843        4.14357006660036
H            6.10578284154721       -0.32751048605932       -3.75355289212842
H            7.57181294703164       -2.30374060549093       -3.53930866898836
H            6.79047473612429       -4.29042589106402       -2.31063275469310
H            4.56782561873245       -4.29527676047957       -1.24933298466186
H            3.09631575029748       -2.30955946093296       -1.46978230557917
H            2.85514729381041        2.07580519063675       -4.83649967731182
H            3.99714618631505        4.18462256963861       -5.49917979227504
H            6.02829755556893        4.89735777692173       -4.29465060695517
H            6.91616308524096        3.52265356333481       -2.44611330323029
H            5.78565577511964        1.44146190873000       -1.79748586996013
H            0.70129000376854        0.71925259968711       -1.95242064169374
H           -1.27952195628150       -0.20837078220213       -1.19918693573328
H           -3.67633091882365        0.25760666039069       -1.07630955657115
H           -7.31513684970535        1.90153310037382       -0.92605126021102
H           -8.77014670191221       -0.06198347360205       -1.15567096573764
H           -5.85514727760173       -3.49878978985191       -0.91618568821524
H           -5.62488913306082       -5.85787371418991       -1.58918850311276
H           -7.55042270892743       -7.37071680842489       -1.57787606680121
H           -9.78920640745844       -6.55830520455855       -0.91214577858537
H          -11.93424887499164       -5.05400355835837       -0.08218392227822
H          -13.43037589636668       -3.24718894332013        0.70024799522195
H          -12.55104415934418       -1.00876185783376        1.16125347467376
H          -10.16455381041852       -0.48592165437040        0.83569544006377
H           -6.07939775882658       -2.33932026111309        1.25403002007597
H           -4.59602303399431       -0.39170691491572        1.43681698807848
H           -5.11257656076829        1.32262271172278        3.22152917554419
H           -5.94155499397068        2.78689237726644        5.02749214064765
H           -6.70038321651649        5.06789363994293        4.53894537137482
H           -6.65129975688253        5.93901554365854        2.22736881022886
H           -6.37168308409853        6.36967586332479       -0.31169348176545
H           -5.94730935663005        6.28294333676663       -2.74409793800609
H           -5.04880015695230        4.24932081380035       -3.78099157271172
H           -4.55734698245327        2.25231858769669       -2.41580772690235
H           -2.94712699943242        3.24905711143289        1.88148443646818
H           -0.54812370098558        2.79903434072469        1.74446746025158
H            1.05408827873432        1.17512677881559        2.30363259279131
