128
 energy: -201.630851098335 gnorm: 0.000056893133 xtb: 6.7.1 (edcfbbe)
O            6.76598740667090       -2.51424812017812        0.64701661747916
P            7.24001602401786       -1.25138021927834        1.22251229686129
C            7.73338916154199       -0.00211959147276       -0.00102485260512
C            8.14807247279364       -0.47423687847254       -1.23724007421054
C            8.60951135677291        0.40895918001875       -2.19610674413108
C            8.67411147067732        1.76265155864169       -1.91030730629619
C            8.25223307990133        2.23599692966800       -0.67725042041070
C            7.77388659691627        1.35725189178376        0.27772085828123
C            8.69594572791724       -1.45941129694724        2.29542781055619
C            9.08531560185997       -2.76129397043752        2.57435469389440
C           10.18087162313283       -2.99937585407572        3.38510774367832
C           10.88919781282312       -1.93358763000562        3.91503719632116
C           10.50505923851239       -0.63175745910676        3.63168002895199
C            9.41062355368121       -0.39091880136907        2.82172063195575
C            5.98847597598058       -0.43955163309703        2.26907620034759
C            6.06133430106509       -0.27238692473461        3.64397240543814
C            4.98196239353177        0.22565284267745        4.36853185853552
C            3.78580538806898        0.54579095357363        3.75402892948461
C            3.68431108750362        0.37674146722126        2.37903351107957
C            4.79382526975151       -0.09786871221854        1.65501893266114
O            4.53555864699979       -0.19271124574043        0.32904317574101
C            3.23540366120430        0.17774414413710        0.17084662205184
C            2.50037702105179        0.18120484907402       -1.00415200430461
P            3.11804728526508       -0.28883337571020       -2.65358422788192
O            2.02486669755495       -0.68575424623713       -3.55119306882418
C            4.33583951871518       -1.61100895792126       -2.38890626094693
C            4.01014967936116       -2.64653935835858       -1.52495239202838
C            4.85861768454762       -3.72956519616604       -1.39889162925023
C            6.02103160218379       -3.78572163168321       -2.14972895185823
C            6.33706739150767       -2.75923217748152       -3.02360401345847
C            5.49617068247966       -1.66669941146641       -3.14388784381691
C            4.01173468272886        1.18588954180858       -3.22787615663836
C            5.04066864845131        1.76672001650335       -2.49851153404988
C            5.63570980964868        2.92294567614425       -2.96814130924874
C            5.21755224587768        3.48959508956693       -4.16256122546730
C            4.19746922136471        2.90367810791976       -4.89363157230079
C            3.58973405741938        1.75437807101400       -4.42110733035371
C            1.17085725512296        0.56210782133255       -0.92167432148941
C            0.56368740630779        0.93529767967473        0.28201050755389
C           -0.86317432641224        1.28772688458285        0.31354813749386
C           -1.77968271560349        0.59681161112502       -0.47618641869898
C           -3.12533628036601        0.89772606348157       -0.42232201273633
C           -3.59960791882299        1.89207321404983        0.42660251786371
C           -5.07431867778148        2.23714593807396        0.44729016980222
C           -5.95236314487024        1.01023963727289        0.30756736333110
C           -5.61320340180707       -0.16720836215934        0.96615826920652
C           -6.42216865092501       -1.28245818647020        0.88476827115070
C           -7.59354077825889       -1.24303151570982        0.13421877303255
N           -8.40131236069342       -2.38312073370428        0.02829925418538
C           -9.76194762466836       -2.43804308725303        0.25291243523942
C          -10.62928990479144       -1.43999255909116        0.67353890023632
C          -11.95865673409880       -1.77304326203314        0.84884696952982
C          -12.42103100780104       -3.06751923259100        0.62158841941518
C          -11.55857434283968       -4.06999480227057        0.22564607572522
C          -10.21742668639209       -3.76013758447756        0.04260041209903
C           -9.06720887200292       -4.53298447861548       -0.33389495641900
C           -8.88212001440440       -5.86530587830414       -0.67929336370899
C           -7.61377803197378       -6.29035164150838       -1.02002198832283
C           -6.54019405704711       -5.40251784985032       -1.03336204413163
C           -6.69904590469155       -4.07291403775882       -0.69328058349677
C           -7.96718895678477       -3.64488987133381       -0.32717797548811
C           -7.94742700886398       -0.06312244653148       -0.51157701607714
C           -7.13748684363748        1.05245622493097       -0.41513507273309
C           -5.50831631763684        2.97818419420318        1.69811411797881
C           -5.52397915467660        2.53148581564806        3.00198912493364
C           -5.98591259953488        3.38671739356840        3.99345931407589
C           -6.42819745942776        4.66322159657497        3.68161070929950
C           -6.42000384816362        5.11573944054444        2.37217723568492
C           -5.95881889044479        4.26705885399626        1.37946053132805
C           -5.83205944585212        4.46069008341125       -0.05585483568083
C           -6.12236058979806        5.55550901462828       -0.85307461716893
C           -5.89434636924936        5.46256366508428       -2.21645700992238
C           -5.38282844957758        4.30000444278737       -2.77271334582717
C           -5.08999125068312        3.19965854435254       -1.97824299266080
C           -5.32271869764312        3.28385845378646       -0.62227441128469
C           -2.68548171597088        2.60251124018304        1.19336966784017
C           -1.33793763964264        2.30134668031902        1.14164895390081
C            1.31525166374785        0.93460392781386        1.45196536378091
C            2.64664221579956        0.55078403552686        1.39645683247591
H            8.08929353078529       -1.53580236057746       -1.42757227395150
H            8.92709837567003        0.04454038586757       -3.16189898862726
H            9.04905104431552        2.45259833239983       -2.65232282347884
H            8.29805888972401        3.29372636812331       -0.45834711861751
H            7.42411446096226        1.72449317144196        1.23344480437278
H            8.51586205354937       -3.57250344010170        2.14425964985787
H           10.48300697287794       -4.01299516917826        3.60387362112094
H           11.74489853428618       -2.11526411080806        4.54863013159336
H           11.06234950056985        0.19696384881750        4.04388645576808
H            9.11192917971587        0.62226755511071        2.59575701037746
H            6.97316240377037       -0.54006208705904        4.15813198581286
H            5.08102519611590        0.34663954933303        5.43691720301907
H            2.94628483918819        0.90998414402468        4.32582467124718
H            3.08989045765418       -2.59288412969687       -0.95729974997663
H            4.61833002675996       -4.52907519847969       -0.71463335994200
H            6.68437840257972       -4.63202434999192       -2.05005217092188
H            7.24026881113906       -2.81051058464750       -3.61591939747359
H            5.73453184607388       -0.85568245757942       -3.81987016660819
H            5.37301450791089        1.30950712673763       -1.57763135858126
H            6.42857581506008        3.38640182980199       -2.40089444687460
H            5.68951246183535        4.39233259496349       -4.52274343608983
H            3.87455000298257        3.34501454370737       -5.82520275042040
H            2.78491367459025        1.27802265168878       -4.96241023662520
H            0.59998216208157        0.55903376796799       -1.83900256924055
H           -1.43692838806557       -0.19844069262893       -1.12083621544585
H           -3.81871554089442        0.34068510053590       -1.03560212580546
H           -4.70099912442789       -0.21599498292504        1.54260413378499
H           -6.15598816588879       -2.18757461174333        1.41001520927607
H          -10.27704732930267       -0.43822971897793        0.86914590942950
H          -12.65460240117770       -1.01314152862086        1.17289352864685
H          -13.46839158864770       -3.28676794817976        0.76725510689501
H          -11.91364907906721       -5.07675514592303        0.06441525423604
H           -9.71728463213155       -6.54948079843352       -0.68425221981452
H           -7.44779720751657       -7.32272696845852       -1.28991475664321
H           -5.56218716487728       -5.76049399827809       -1.31958301938219
H           -5.86393592705533       -3.38934613045401       -0.72340766926962
H           -8.85052236651700       -0.02854121313157       -1.10229174199151
H           -7.42551772281765        1.96170250152358       -0.92166714523295
H           -5.18200504214830        1.53840196054290        3.25269901052990
H           -6.00139312412093        3.05243662112181        5.02046696947395
H           -6.78421407053535        5.31105167137116        4.46940002185266
H           -6.76678543289107        6.10960302230993        2.13124324421480
H           -6.51728099677176        6.46323987374158       -0.42157699253276
H           -6.11522405921344        6.30601757218351       -2.85426727259951
H           -5.20917815568392        4.24918330525904       -3.83746269943579
H           -4.69044826755832        2.29786515569239       -2.41754779087508
H           -3.03016257058375        3.39656196111831        1.83973924396898
H           -0.64316148715493        2.87439090864550        1.73826734768644
H            0.86419633164820        1.19152937956084        2.39811791916050
