  77
       -130.85810896
 O         -4.9586980019       -2.6715411395       -2.2773930072
 C         -4.4249283589       -1.9373220065       -1.4374250456
 C         -2.9716003964       -1.9664822181       -1.1990615671
 C         -2.1367869893       -2.3903838759       -2.2420326085
 C         -0.7674991751       -2.3962597610       -2.0972010552
 C         -0.1966134002       -1.9938476809       -0.8909287570
 N          1.2134673117       -1.9481690303       -0.7384267194
 C          1.9620713408       -1.0181365215       -1.4457819924
 C          1.3786401233       -0.1031750022       -2.3183616073
 C          2.1526876472        0.8243368123       -2.9932341030
 C          3.5257198119        0.8480621865       -2.8225064628
 C          4.1257959108       -0.0556139989       -1.9604058148
 C          3.3554792099       -0.9753483206       -1.2698502780
 O          4.0072097079       -1.8240747735       -0.4183903094
 C          3.2539763857       -2.7231110737        0.2849862059
 C          3.9259828121       -3.5749401854        1.1448364301
 C          3.2250275468       -4.5176279336        1.8779915748
 C          1.8513906019       -4.6123776756        1.7376045824
 C          1.1734507360       -3.7690062286        0.8756612091
 C          1.8587324323       -2.8026913810        0.1443197078
 C         -1.0180959331       -1.6267397351        0.1713487510
 C         -2.3867869203       -1.6124720031        0.0205144997
 C         -5.2129121964       -0.9519446882       -0.6764870308
 C         -6.6215726586       -0.9775449277       -0.7188741253
 C         -7.3140935509       -0.0098862728       -0.0128042870
 C         -6.6297429664        0.9589607307        0.6997495805
 C         -5.2208385505        0.9356336739        0.6698476724
 C         -4.4402119394        1.9230234523        1.4362550235
 O         -4.9794753354        2.6516391426        2.2775744911
 C         -2.9867891114        1.9604198757        1.1993845910
 C         -2.4002172502        1.6135212258       -0.0214921173
 C         -1.0315603043        1.6326937128       -0.1715608697
 C         -0.2118337998        1.9982062803        0.8927289080
 N          1.1983296659        1.9540994099        0.7413188699
 C          1.9474440914        1.0241873849        1.4483734272
 C          1.3655402881        0.1122587350        2.3252592750
 C          2.1401373883       -0.8159764921        2.9985672189
 C          3.5123643647       -0.8435812199        2.8221368302
 C          4.1110550059        0.0575878974        1.9564046810
 C          3.3401095109        0.9779572238        1.2674324319
 O          3.9909615886        1.8239635399        0.4124247547
 C          3.2379056114        2.7274226731       -0.2854862718
 C          3.9095014977        3.5804880040       -1.1444955395
 C          3.2087999995        4.5277070678       -1.8719918917
 C          1.8358808526        4.6258013570       -1.7266918936
 C          1.1583514820        3.7809512831       -0.8658628793
 C          1.8433938672        2.8101408968       -0.1402443110
 C         -0.7847543634        2.3956144806        2.0996877779
 C         -2.1541445084        2.3844537567        2.2439345825
 N         -4.5861834979       -0.0075993898       -0.0003867663
 H         -2.5949266551       -2.7007266345       -3.1686001658
 H         -0.1301269537       -2.7094917998       -2.9113815587
 H          0.3122088394       -0.1332079670       -2.4727767562
 H          1.6761971515        1.5281747782       -3.6577588594
 H          4.1294542030        1.5625358404       -3.3581348957
 H          5.1918776623       -0.0603596823       -1.8012027975
 H          4.9977941650       -3.4846619551        1.2183015649
 H          3.7531644505       -5.1777779150        2.5472849563
 H          1.2977483634       -5.3517094521        2.2949965077
 H          0.1059020286       -3.8621906814        0.7563449736
 H         -0.5683992767       -1.3512534160        1.1122027143
 H         -3.0071823163       -1.3275660606        0.8534502060
 H         -7.1077324677       -1.7503115255       -1.2913391105
 H         -8.3948455427       -0.0108236678       -0.0178843896
 H         -7.1223332041        1.7309756770        1.2677503094
 H         -3.0191735062        1.3300449668       -0.8560431040
 H         -0.5806699679        1.3618655894       -1.1131752644
 H          0.2998603604        0.1449231303        2.4844755452
 H          1.6645775024       -1.5172068321        3.6665279327
 H          4.1165535736       -1.5585908026        3.3565301651
 H          5.1765295333        0.0598668031        1.7930139841
 H          4.9808832921        3.4875520925       -1.2210978952
 H          3.7365734296        5.1894032556       -2.5400336164
 H          1.2826909264        5.3692789563       -2.2790224343
 H          0.0914083788        3.8764706199       -0.7427657815
 H         -0.1489231973        2.7082925016        2.9153247992
 H         -2.6136649657        2.6899442040        3.1714325153
