  54
        -84.08522869
 O          6.4586108265       -2.1693369446        0.7916560336
 C          5.9808872056       -1.1213495580        0.3982279020
 C          6.8371798895        0.0058075381       -0.0517996940
 C          6.4440045146        0.8560128725       -1.0838451839
 C          7.2856029389        1.8694571400       -1.5038880590
 C          8.5177906140        2.0501944227       -0.8958684009
 C          8.9184797226        1.2030787601        0.1251184840
 C          8.0877728122        0.1790294795        0.5378678147
 C          4.5136821943       -0.9083893158        0.3366761974
 C          3.6845363095       -1.9937978122        0.0586898228
 C          2.3165427171       -1.8332858027       -0.0029897714
 C          1.7361264318       -0.5894657829        0.2448229505
 C          0.2792175915       -0.4186437496        0.1842259791
 C         -0.3901543703        0.3489655114        1.1358599417
 C         -1.7603892546        0.5025189428        1.0856305375
 C         -2.4955098297       -0.0950254622        0.0644386414
 N         -3.8835449055        0.0677824830        0.0038200281
 C         -4.5609646978        1.2693964972        0.0836039452
 C         -4.0629554821        2.5603334127        0.1861142893
 C         -4.9708598438        3.6015546100        0.2194685488
 C         -6.3430476236        3.3732592503        0.1442565088
 C         -6.8433472058        2.0929783741        0.0161620610
 C         -5.9503524096        1.0301915261       -0.0203414667
 C         -6.1108447149       -0.3897396964       -0.1648434506
 C         -7.2187812351       -1.2171513352       -0.2918876242
 C         -7.0190342086       -2.5795225098       -0.3906500917
 C         -5.7358802025       -3.1200284332       -0.3473724224
 C         -4.6182372616       -2.3171839058       -0.2215920574
 C         -4.8109950716       -0.9451008734       -0.1486254167
 C         -1.8334998044       -0.8561651449       -0.8960735615
 C         -0.4655265605       -1.0219033973       -0.8279703341
 C          2.5669220797        0.4867140607        0.5563743853
 C          3.9380044671        0.3350684654        0.5929318847
 H          5.4916092778        0.7055517135       -1.5713303626
 H          6.9801787208        2.5202342393       -2.3099037256
 H          9.1686023473        2.8474115559       -1.2231211220
 H          9.8813869188        1.3382958097        0.5946930390
 H          8.3868956947       -0.4968832200        1.3251713470
 H          4.1366096676       -2.9586531030       -0.1169367511
 H          1.6851110773       -2.6825923070       -0.2184621435
 H          0.1667647623        0.8013184654        1.9431633307
 H         -2.2731488172        1.0713831753        1.8467579201
 H         -3.0007882718        2.7499025378        0.2262296134
 H         -4.6078290757        4.6153366943        0.3020806314
 H         -7.0202526866        4.2135412239        0.1773810154
 H         -7.9056907485        1.9167719384       -0.0602920079
 H         -8.2138273104       -0.7989089337       -0.3084945005
 H         -7.8666194746       -3.2405322035       -0.4928462812
 H         -5.6115633794       -4.1910550050       -0.4089875149
 H         -3.6297015659       -2.7480403642       -0.1690286538
 H         -2.3966635775       -1.3003422210       -1.7031606362
 H          0.0389916072       -1.5997581937       -1.5883777215
 H          2.1312005555        1.4563434657        0.7484454336
 H          4.5670104461        1.1775007438        0.8414340718
