  137
       -208.08597865
 C         -9.8561853714        6.1740218374        1.7586427633
 C        -10.4035728192        5.3328327442        0.6026142418
 C        -10.1038264647        6.0713632200       -0.7096795998
 C        -11.9216192834        5.1953495410        0.7861005452
 C         -9.7860798980        3.9457941166        0.5437729619
 C        -10.1736773360        3.0615411001       -0.4622140287
 C         -9.6416461242        1.7940398978       -0.5612192835
 C         -8.6906674208        1.3552744083        0.3594136769
 N         -8.1489994514        0.0688002341        0.2693460047
 C         -6.8045937089       -0.1505156189        0.5539257167
 C         -6.3877316224       -1.3528268546        1.1320520855
 C         -5.0540312461       -1.5840588301        1.3811567721
 C         -4.0888782234       -0.6227225225        1.0748859758
 C         -2.6692306346       -0.8736407694        1.3232338878
 C         -1.8690383146        0.0975744760        1.8808040344
 C         -0.5028664600       -0.1032441164        2.1428723157
 C          0.0764159271       -1.4322054025        1.8465331696
 C         -0.7498393587       -2.3815726051        1.2235866831
 C         -2.0835378618       -2.1241555784        0.9686334779
 C         -2.8372988747       -3.1027584463        0.2912353860
 N         -3.4171556644       -3.9120970578       -0.2824036375
 N          1.3057289665       -1.6857732363        2.1794119847
 C          2.0420636129       -0.7954760135        2.9883948794
 C          3.5208889045       -0.9911158751        2.8134123587
 C          4.2553406228       -1.7976863527        3.6707555534
 C          5.6123610030       -1.9561385890        3.4454031475
 C          6.1795879168       -1.3082568927        2.3551265177
 P          7.9780673770       -1.4463104776        2.0727325279
 O          8.6594469958       -2.2460083358        3.0980522686
 C          8.5545608076        0.2792667649        1.9863529841
 C          9.7357821059        0.5675651221        2.6561069460
 C         10.2504182643        1.8512191391        2.6274660727
 C          9.5792800926        2.8456730913        1.9345379061
 C          8.3969384468        2.5567554331        1.2712050001
 C          7.8831496037        1.2725545908        1.2861533660
 C          8.1611331805       -2.1020049891        0.3851866697
 C          9.2550973822       -2.9255983639        0.1582010058
 C          9.4834590920       -3.4341817302       -1.1078576794
 C          8.6191329846       -3.1168327938       -2.1430776667
 C          7.5233639151       -2.2994851780       -1.9126440883
 C          7.2898127551       -1.7886656170       -0.6480875028
 N          5.4842447498       -0.5492425539        1.5241680972
 C          4.1879090923       -0.3822994673        1.7435447940
 C          3.4488706988        0.5080895959        0.8434316720
 N          3.9826445468        0.7912959348       -0.3372593009
 C          3.3278969318        1.6024244264       -1.1519942849
 P          4.0421142453        1.9696684234       -2.7936046070
 O          3.2948615362        3.0195395071       -3.4974828771
 C          5.7863790830        2.3876909065       -2.4941066743
 C          6.7327060676        1.4279366732       -2.1668081208
 C          8.0500275643        1.8017332917       -1.9768848277
 C          8.4207090149        3.1305760373       -2.1132242067
 C          7.4747288300        4.0887592946       -2.4415626906
 C          6.1557125377        3.7178465184       -2.6344243084
 C          4.0636855762        0.3648835391       -3.6548628919
 C          4.2091050073       -0.8519050741       -3.0025910057
 C          4.2262588578       -2.0233142069       -3.7395673589
 C          4.1045655007       -1.9810966401       -5.1196006506
 C          3.9551641418       -0.7660735794       -5.7688934961
 C          3.9321528290        0.4069133568       -5.0362503394
 C          2.1064339699        2.1802745315       -0.8289070873
 C          1.5460556516        1.8891756529        0.4016626420
 C          2.2204647486        1.0368791391        1.2640180402
 C          1.6559727754        0.6857444751        2.6210902321
 N          0.2561206384        0.8184178904        2.6587503291
 C         -4.5134096805        0.5899776812        0.5283361359
 C         -5.8439474256        0.8222971608        0.2628661955
 C         -8.9645306723       -0.9966874104       -0.1310905369
 C         -8.4683970521       -2.0078258677       -0.9533457003
 C         -9.2822996942       -3.0503011421       -1.3407366661
 C        -10.6150248913       -3.1325669591       -0.9386087279
 C        -11.4654381279       -4.3049215311       -1.3973867552
 C        -11.5226136307       -4.3110215330       -2.9317747001
 C        -12.8997749553       -4.2374328631       -0.8659210714
 C        -10.8290038950       -5.6090438519       -0.8959063561
 C        -11.0986600608       -2.1153480652       -0.1229100938
 C        -10.2933959434       -1.0668107294        0.2785812006
 C         -8.2989625695        2.2267561396        1.3725267782
 C         -8.8374072141        3.4963371059        1.4559063443
 H        -10.0697290579        5.7087452281        2.7181123159
 H         -8.7828156734        6.3195742585        1.6625634068
 H        -10.3294258057        7.1536971169        1.7490258421
 H        -10.5332876664        5.5551988136       -1.5637279645
 H         -9.0291622956        6.1471947907       -0.8615237969
 H        -10.5190520296        7.0763278229       -0.6759957946
 H        -12.3739523866        4.6555728004       -0.0412755385
 H        -12.1421067167        4.6573844058        1.7058757407
 H        -12.3819992166        6.1792874550        0.8432441370
 H        -10.9033255323        3.3652737094       -1.1972142572
 H         -9.9524978116        1.1360317622       -1.3594010910
 H         -7.1221327633       -2.1008017705        1.3904756557
 H         -4.7578233258       -2.5122934630        1.8456562442
 H         -2.2773552375        1.0684186154        2.1184130941
 H         -0.3200249502       -3.3407991547        0.9776221750
 H          1.7781327333       -0.9644664412        4.0475927347
 H          3.7692012380       -2.2887271847        4.5021448859
 H          6.2397551520       -2.5581814818        4.0845092422
 H         10.2316845048       -0.2232779927        3.2007122603
 H         11.1702947040        2.0774989072        3.1468141004
 H          9.9763786501        3.8503242863        1.9144386988
 H          7.8731267178        3.3348493928        0.7350485594
 H          6.9605496531        1.0434014693        0.7759197194
 H          9.9081212304       -3.1651312125        0.9852643464
 H         10.3328750523       -4.0767889314       -1.2882346690
 H          8.7961534068       -3.5111978378       -3.1332266411
 H          6.8501160622       -2.0639960492       -2.7251107369
 H          6.4337094553       -1.1635964400       -0.4423113661
 H          6.4361656211        0.3973716142       -2.0698416838
 H          8.7884138618        1.0554985612       -1.7212928887
 H          9.4511925194        3.4187731526       -1.9643631297
 H          7.7668078474        5.1232847719       -2.5507797792
 H          5.4015929406        4.4431786469       -2.9050622314
 H          4.2950517967       -0.8785179996       -1.9258450783
 H          4.3316599111       -2.9733273297       -3.2351302412
 H          4.1199844122       -2.8988507395       -5.6891972894
 H          3.8539766594       -0.7352705892       -6.8438501749
 H          3.8023070392        1.3661387206       -5.5168288477
 H          1.6316037585        2.8370102253       -1.5413785182
 H          0.5978566489        2.3111026194        0.7039691079
 H          2.1000773749        1.3479536178        3.3780380730
 H         -3.7812794601        1.3402676291        0.2690335267
 H         -6.1506292822        1.7513774644       -0.1945169009
 H         -7.4436275603       -1.9678793963       -1.2917774401
 H         -8.8613885312       -3.8115590556       -1.9790807881
 H        -12.1453562515       -5.1326240065       -3.2788731051
 H        -10.5335619671       -4.4278700158       -3.3653602065
 H        -11.9476000122       -3.3781583680       -3.2965064886
 H        -13.4062672435       -3.3408330252       -1.2157774482
 H        -13.4589239784       -5.0994005188       -1.2239879730
 H        -12.9162613807       -4.2562513347        0.2213530487
 H        -10.7701729945       -5.6053915193        0.1905292005
 H         -9.8253613078       -5.7389635014       -1.2906049758
 H        -11.4298519189       -6.4612162503       -1.2058394122
 H        -12.1188346811       -2.1277489687        0.2237781277
 H        -10.6928437250       -0.2969112629        0.9227382709
 H         -7.5738497851        1.9003351465        2.1037701664
 H         -8.5040037558        4.1324332218        2.2592357858
