  60
  -97.7301500662000       0.188728697988260      !
 C         -8.1031138795        2.7175696846        0.8721995157
 C         -6.8649754300        2.7604419816        1.4921147304
 C         -5.9091657594        1.8030008376        1.2133549988
 C         -6.1797635824        0.7878872499        0.2963750293
 N         -5.2160492455       -0.1885643385        0.0101623601
 C         -5.6199426722       -1.5173930956       -0.1808228771
 C         -5.0123904551       -2.3088144943       -1.1549299571
 C         -5.4162015762       -3.6170016353       -1.3382032852
 C         -6.4331138088       -4.1526346209       -0.5647102293
 C         -7.0437325220       -3.3681889654        0.4000181537
 C         -6.6411607901       -2.0615522047        0.5969942993
 C         -3.8705442019        0.1555449962       -0.0770782756
 C         -2.8742397671       -0.7389605722        0.3273892003
 C         -1.5474022855       -0.3938663404        0.2364858846
 C         -1.1539742772        0.8583717885       -0.2538130644
 C          0.2600871743        1.1719785334       -0.3215036352
 C          0.7780546643        2.4308367747       -0.6229474027
 N          2.0770888491        2.6601364259       -0.6635744616
 C          2.9516228008        1.7072936811       -0.4196160825
 N          4.2491730583        1.9109143118       -0.4557493030
 C          5.0733106786        0.9080883681       -0.1955917305
 C          4.5699076016       -0.3854800026        0.1213403730
 N          3.2727154643       -0.6254840968        0.1668460940
 C          2.4207589832        0.3538372537       -0.0877944723
 N          1.1301883067        0.1794871041       -0.0603137318
 C          5.6941181849       -1.2707953710        0.3555244950
 C          5.8520591697       -2.5938167442        0.6862352759
 C          7.1618532613       -3.0918568097        0.8270848840
 C          8.2812119599       -2.3144368066        0.6486603082
 C          8.1533271638       -0.9473468458        0.3070982054
 C          9.1804693657        0.0007079841        0.0853175717
 C          8.8653397966        1.2976184416       -0.2420575260
 C          7.5402794831        1.7562203616       -0.3748402258
 C          6.5196878851        0.8614402626       -0.1655558059
 C          6.8503607433       -0.4745402827        0.1718386871
 C         -2.1538932381        1.7478102990       -0.6599900775
 C         -3.4835540058        1.4034685456       -0.5755259991
 C         -7.4263282127        0.7505744620       -0.3271987538
 C         -8.3785372960        1.7076968925       -0.0351771267
 H         -8.8485608384        3.4654895314        1.0954763941
 H         -6.6441537549        3.5402929871        2.2059102800
 H         -4.9487873518        1.8306797295        1.7068864862
 H         -4.2268948715       -1.8896398541       -1.7665075716
 H         -4.9387320066       -4.2194780045       -2.0968488036
 H         -6.7481030045       -5.1742191953       -0.7132808042
 H         -7.8347001439       -3.7787412551        1.0101464824
 H         -7.1123672835       -1.4538861465        1.3557023785
 H         -3.1564709243       -1.7036613366        0.7225923566
 H         -0.7802975245       -1.0820869370        0.5552517340
 H          0.1483631262        3.2822875557       -0.8259674839
 H          5.0033797975       -3.2432590393        0.8364640951
 H          7.2836671816       -4.1339182852        1.0871615565
 H          9.2655287801       -2.7435689231        0.7684306763
 H         10.2135679112       -0.3022406092        0.1756858143
 H          9.6656279696        2.0049833049       -0.4066414696
 H          7.3441440352        2.7851489358       -0.6340635925
 H         -1.8943568334        2.7125710985       -1.0675264086
 H         -4.2412563146        2.0975347996       -0.9085905557
 H         -7.6395207280       -0.0311691675       -1.0415347147
 H         -9.3394437840        1.6693100000       -0.5266589655
  60
  -97.7300006123000       0.161121570675781      !
 C         -7.8348273709        2.6477572693        1.6264259276
 C         -8.2643304163        1.7947042018        0.6230508015
 C         -7.4034799728        0.8584036351        0.0837628754
 C         -6.0939003217        0.7581101111        0.5517025120
 N         -5.2190182115       -0.1964056831        0.0162210566
 C         -5.7005459529       -1.4674241878       -0.3232006805
 C         -6.6711573204       -2.0888602198        0.4616746745
 C         -7.1490525182       -3.3379674011        0.1161036836
 C         -6.6649002300       -3.9888944906       -1.0068379526
 C         -5.6975395035       -3.3771942859       -1.7872991514
 C         -5.2188954204       -2.1248975550       -1.4547609888
 C         -3.8728859288        0.1136781148       -0.1617561274
 C         -2.8813609809       -0.8502797017        0.0451130753
 C         -1.5539657367       -0.5297151768       -0.1100559115
 C         -1.1578587624        0.7605665786       -0.4856229572
 C          0.2571049352        1.0534629737       -0.6119559191
 C          0.7743023794        2.2273244913       -1.1578137500
 N          2.0727790588        2.4531089977       -1.2250090614
 C          2.9468166625        1.5760025354       -0.7787999844
 N          4.2428508100        1.7884964130       -0.8133137025
 C          5.0669824592        0.8627479833       -0.3485549257
 C          4.5659237475       -0.3616284993        0.1779112142
 N          3.2703274865       -0.6094511211        0.2248484348
 C          2.4175894162        0.2998663343       -0.2177165926
 N          1.1272363695        0.1261433366       -0.1726806319
 C          5.6904514305       -1.1711313953        0.6057208065
 C          5.8508104508       -2.4088699054        1.1776554417
 C          7.1598750489       -2.8486413140        1.4543107278
 C          8.2763592957       -2.0960507980        1.1782101159
 C          8.1461746364       -0.8163468108        0.5888497323
 C          9.1702294454        0.0951828472        0.2366013736
 C          8.8532099134        1.3058319392       -0.3312181383
 C          7.5290352072        1.7086210349       -0.5920269406
 C          6.5116097399        0.8471802233       -0.2615818606
 C          6.8439677703       -0.4002018664        0.3226885050
 C         -2.1543021849        1.7175117296       -0.7021499013
 C         -3.4840856389        1.4015529135       -0.5419888881
 C         -5.6676088930        1.6158554265        1.5654779148
 C         -6.5333535468        2.5544450364        2.0918595348
 H         -8.5095727729        3.3799209651        2.0432032008
 H         -9.2759395682        1.8635922812        0.2509716748
 H         -7.7381087263        0.1995155035       -0.7040798958
 H         -7.0432247852       -1.5870465119        1.3429386719
 H         -7.9003433737       -3.8091122678        0.7326124524
 H         -7.0391511013       -4.9659163340       -1.2721064788
 H         -5.3183249426       -3.8748301778       -2.6676864286
 H         -4.4717889185       -1.6452227463       -2.0700571959
 H         -3.1667330648       -1.8477661650        0.3453743745
 H         -0.7884761924       -1.2687453079        0.0674042606
 H          0.1447248355        3.0035932953       -1.5625051581
 H          5.0046160013       -3.0355096924        1.4137985950
 H          7.2834877237       -3.8231131979        1.9050128705
 H          9.2601295233       -2.4775703523        1.4107567082
 H         10.2024897938       -0.1671337152        0.4178612678
 H          9.6509008146        1.9871063242       -0.5905995272
 H          7.3308350416        2.6707760185       -1.0383048446
 H         -1.8923925678        2.7238379572       -0.9899221634
 H         -4.2409470315        2.1533786474       -0.7118010768
 H         -4.6572061040        1.5355961747        1.9390312004
 H         -6.1915113503        3.2111042276        2.8782683256
  60
  -97.7299548145000       0.153499326853307      !
 C         -8.2005470731        2.7148909074       -0.4226544371
 C         -8.3827729743        1.6510043843        0.4456258744
 C         -7.3965983642        0.6959000389        0.5980793507
 C         -6.2096718180        0.7905932830       -0.1274494394
 N         -5.2120729486       -0.1829330262        0.0209516397
 C         -5.5881158199       -1.5255684215        0.1743790119
 C         -4.9151713134       -2.3534953814        1.0717647424
 C         -5.2943996834       -3.6738750442        1.2164899667
 C         -6.3506665299       -4.1855311409        0.4805242783
 C         -7.0264950268       -3.3645974739       -0.4072214371
 C         -6.6496647852       -2.0449927827       -0.5650630791
 C         -3.8688699971        0.1767713012        0.0396574082
 C         -3.4648986926        1.4106919771        0.5593821646
 C         -2.1345942175        1.7615331633        0.5893518732
 C         -1.1509844968        0.8917173530        0.1087708978
 C          0.2642295838        1.2059054114        0.1464515112
 C          0.7830152388        2.4755597676        0.3946114727
 N          2.0828601977        2.7010613824        0.4403778790
 C          2.9550876159        1.7340781283        0.2515673048
 N          4.2530284627        1.9287661600        0.3167001407
 C          5.0753132360        0.9122258688        0.1099851048
 C          4.5704770877       -0.3844689413       -0.1909758104
 N          3.2728792992       -0.6158702071       -0.2641599007
 C          2.4224784307        0.3738850040       -0.0486847815
 N          1.1312543597        0.2030222430       -0.0804674966
 C          5.6933248612       -1.2849077809       -0.3662615747
 C          5.8499461624       -2.6172557871       -0.6576024395
 C          7.1588515262       -3.1310160201       -0.7366795262
 C          8.2787266066       -2.3602194266       -0.5355530148
 C          8.1523515537       -0.9838825688       -0.2331309111
 C          9.1802657408       -0.0409597725        0.0066186629
 C          8.8667360457        1.2665691887        0.2905542042
 C          7.5425072182        1.7412156707        0.3602341127
 C          6.5213075363        0.8516193375        0.1323795994
 C          6.8502785576       -0.4951637209       -0.1603597211
 C         -1.5604661380       -0.3433974240       -0.4095682764
 C         -2.8887492939       -0.6926488826       -0.4509431083
 C         -6.0335737955        1.8592719284       -1.0055046508
 C         -7.0225121401        2.8137061001       -1.1449274282
 H         -8.9716969871        3.4615133610       -0.5362273004
 H         -9.2963342159        1.5680445280        1.0156820695
 H         -7.5362254137       -0.1284069076        1.2820821049
 H         -4.0988062931       -1.9532988619        1.6547669078
 H         -4.7661771049       -4.3051454667        1.9155586481
 H         -6.6457009174       -5.2170756214        0.5987628022
 H         -7.8487677836       -3.7562082243       -0.9876164163
 H         -7.1723256300       -1.4075864824       -1.2631507818
 H         -4.2078835103        2.0865708353        0.9566083976
 H         -1.8584470061        2.7114245742        1.0203630940
 H          0.1529901924        3.3373202201        0.5468717464
 H          5.0010040895       -3.2623338060       -0.8226969024
 H          7.2795218713       -4.1801629022       -0.9664132526
 H          9.2622881624       -2.8017103715       -0.6067693610
 H         10.2127723170       -0.3564726413       -0.0341471738
 H          9.6676624875        1.9695697490        0.4710970413
 H          7.3473811560        2.7777068609        0.5879291049
 H         -0.8062326859       -1.0161211245       -0.7868312161
 H         -3.1846365149       -1.6439714629       -0.8680387542
 H         -5.1203747792        1.9313711722       -1.5779751333
 H         -6.8754551018        3.6359906439       -1.8295243224
  60
  -97.7299155411000       0.147250802495797      !
 C         -6.7314086820        1.4669402962        3.5739539520
 C         -7.2059565685        0.2452122826        3.1253049085
 C         -6.7072102556       -0.3167173560        1.9660704475
 C         -5.7245623091        0.3462368276        1.2321122925
 N         -5.2211830289       -0.2131734049        0.0499055865
 C         -6.0837013775       -0.8939292374       -0.8185941993
 C         -5.6504939439       -2.0353282409       -1.4927565052
 C         -6.5056215668       -2.7050973631       -2.3459559506
 C         -7.8028531758       -2.2567385504       -2.5344081033
 C         -8.2390626602       -1.1260871040       -1.8634251401
 C         -7.3889306044       -0.4440538013       -1.0148156632
 C         -3.8685205459       -0.0871437838       -0.2577389199
 C         -2.9014674657       -0.1249721035        0.7515613510
 C         -1.5680082132        0.0051274786        0.4455652819
 C         -1.1426708713        0.1890350034       -0.8762806636
 C          0.2752947118        0.3406228604       -1.1432248412
 C          0.8033224379        0.8038319173       -2.3469558447
 N          2.1027466321        0.9448637833       -2.5306308484
 C          2.9663827670        0.6517040285       -1.5818158313
 N          4.2638498063        0.7859363317       -1.7401782406
 C          5.0777806471        0.4653448666       -0.7467553914
 C          4.5641412495       -0.0236140099        0.4878764913
 N          3.2660934929       -0.1596844543        0.6853772078
 C          2.4239587751        0.1534986999       -0.2853465148
 N          1.1329204508        0.0376332292       -0.1525268718
 C          5.6797709535       -0.2973489878        1.3728147129
 C          5.8274773196       -0.7766774406        2.6508712569
 C          7.1318366660       -0.9040416801        3.1665111093
 C          8.2556946821       -0.5683944263        2.4501796365
 C          8.1385698908       -0.0708042580        1.1308042880
 C          9.1717446145        0.3238852316        0.2475475583
 C          8.8672299759        0.7862247839       -1.0103243313
 C          7.5476434199        0.8921680154       -1.4911799586
 C          6.5216141738        0.5169492591       -0.6589584974
 C          6.8409721397        0.0444749557        0.6382029433
 C         -2.1128634066        0.2176188067       -1.8826750445
 C         -3.4487319122        0.0794643780       -1.5806160520
 C         -5.2526929241        1.5777099267        1.6855399573
 C         -5.7523736294        2.1275227415        2.8499390413
 H         -7.1220605796        1.9015314268        4.4813920839
 H         -7.9656597183       -0.2788701252        3.6862914352
 H         -7.0725907783       -1.2732598460        1.6221189503
 H         -4.6433774713       -2.3936318070       -1.3373612790
 H         -6.1589868409       -3.5896492556       -2.8597048134
 H         -8.4693277657       -2.7852525991       -3.1988584196
 H         -9.2472113571       -0.7665263633       -2.0080372891
 H         -7.7282522667        0.4428995173       -0.5000137813
 H         -3.2114285935       -0.2674660649        1.7764208563
 H         -0.8213303933       -0.0361103136        1.2230615202
 H          0.1800563409        1.0890402977       -3.1793735860
 H          4.9752230501       -1.0542695822        3.2514749030
 H          7.2456668499       -1.2839769586        4.1719237700
 H          9.2355153504       -0.6844063201        2.8905811398
 H         10.2010389819        0.2610484427        0.5697950751
 H          9.6718012896        1.0843572807       -1.6673688162
 H          7.3595806403        1.2617378738       -2.4872938799
 H         -1.8242487216        0.3411646924       -2.9150545860
 H         -4.1858789550        0.1079237965       -2.3697252185
 H         -4.4966264763        2.0988461619        1.1166928365
 H         -5.3799081631        3.0827465228        3.1895844855
  60
  -97.7298064944000       0.131202852380452      !
 C         -6.7390652900        1.5390500539        3.5373263619
 C         -7.2264222502        0.3171728737        3.1033415108
 C         -6.7259693761       -0.2692422914        1.9570937783
 C         -5.7287985598        0.3691706798        1.2208881004
 N         -5.2233364568       -0.2151716443        0.0521813958
 C         -6.0850853249       -0.9079463859       -0.8078782638
 C         -5.6566966996       -2.0695225378       -1.4497278205
 C         -6.5108236784       -2.7524879950       -2.2934844446
 C         -7.8016576927       -2.2962762977       -2.5051062384
 C         -8.2324743850       -1.1442883138       -1.8675639372
 C         -7.3835826246       -0.4498645319       -1.0277020737
 C         -3.8690104051       -0.1011186924       -0.2535919072
 C         -2.9045394459       -0.1296126920        0.7583573027
 C         -1.5700710961       -0.0046847019        0.4541479054
 C         -1.1424262697        0.1660054295       -0.8684334375
 C          0.2752164860        0.3247242545       -1.1344898258
 C          0.7969225799        0.8216224000       -2.3273675102
 N          2.0947680757        0.9820635648       -2.5075188696
 C          2.9617682852        0.6748118222       -1.5663626558
 N          4.2571510342        0.8350238604       -1.7185474339
 C          5.0754907661        0.4924303102       -0.7362690941
 C          4.5694307440       -0.0515691472        0.4782846770
 N          3.2732234039       -0.2096367344        0.6717252771
 C          2.4263633983        0.1299111337       -0.2857962927
 N          1.1362636700        0.0011909732       -0.1536063628
 C          5.6894247705       -0.3454946297        1.3510786881
 C          5.8449327654       -0.8763891382        2.6075908518
 C          7.1513304999       -1.0057757314        3.1175778577
 C          8.2697448339       -0.6227937262        2.4164844746
 C          8.1445203776       -0.0715291922        1.1193667564
 C          9.1711009327        0.3772574720        0.2544094939
 C          8.8591154505        0.8866958234       -0.9831864169
 C          7.5380310315        0.9902852868       -1.4603384363
 C          6.5182828038        0.5637525035       -0.6453347329
 C          6.8451363598        0.0438263318        0.6315540537
 C         -2.1093090713        0.1796522966       -1.8779796645
 C         -3.4459456646        0.0449383769       -1.5777823322
 C         -5.2447833218        1.6015213307        1.6590364856
 C         -5.7460195419        2.1755520105        2.8108947951
 H         -7.1304774643        1.9923681501        4.4352815106
 H         -7.9972373252       -0.1883380603        3.6662220782
 H         -7.1009877991       -1.2264276060        1.6255734454
 H         -4.6542458011       -2.4327968491       -1.2764262425
 H         -6.1685699778       -3.6531232650       -2.7815860621
 H         -8.4675695223       -2.8353049005       -3.1616403391
 H         -9.2355865368       -0.7787502131       -2.0307715005
 H         -7.7186146354        0.4524137345       -0.5374024743
 H         -3.2174820700       -0.2585214660        1.7840912510
 H         -0.8252929107       -0.0375529568        1.2338773525
 H          0.1692062040        1.1212498903       -3.1513187764
 H          4.9970342698       -1.1907586152        3.1963816920
 H          7.2712605063       -1.4262607425        4.1058656619
 H          9.2513827814       -0.7419410133        2.8518945329
 H         10.2013086502        0.3173524218        0.5742688419
 H          9.6588611569        1.2252441020       -1.6266896184
 H          7.3440337289        1.3962040916       -2.4412290655
 H         -1.8166934840        0.2881531371       -2.9110327601
 H         -4.1811947507        0.0620953471       -2.3689789072
 H         -4.4783314299        2.1046331988        1.0879052627
 H         -5.3637296414        3.1310340620        3.1386113695
  60
  -97.7297049401000       0.117834415511618      !
 C         -7.6919730203        2.6370704319        1.8262613392
 C         -6.3766604481        2.4909441015        2.2359822148
 C         -5.5578685257        1.5531455524        1.6379126392
 C         -6.0465641982        0.7490097066        0.6085273516
 N         -5.2183043640       -0.2044352444        0.0013613681
 C         -5.7397307125       -1.4533005068       -0.3578429000
 C         -5.3064552409       -2.0896988306       -1.5207033886
 C         -5.8258806573       -3.3196421535       -1.8746524405
 C         -6.7867388509       -3.9296236866       -1.0848361662
 C         -7.2221952191       -3.3000299168        0.0697086454
 C         -6.7030485679       -2.0738012377        0.4368595122
 C         -3.8719688005        0.0840526113       -0.2126121521
 C         -2.8921301280       -0.9004662921       -0.0546944009
 C         -1.5634830266       -0.5961955054       -0.2338144044
 C         -1.1583133081        0.6957593019       -0.5909502992
 C          0.2575970802        0.9784939125       -0.7349533906
 C          0.7722351973        2.1143378378       -1.3570780498
 N          2.0705018530        2.3427219644       -1.4276879777
 C          2.9440586070        1.5047772083       -0.9114151542
 N          4.2388223974        1.7277500732       -0.9370799928
 C          5.0627198512        0.8431006884       -0.3979715933
 C          4.5638012143       -0.3517011718        0.1943056920
 N          3.2700027405       -0.6105510182        0.2321796236
 C          2.4169325182        0.2622751183       -0.2774299249
 N          1.1268632728        0.0834419936       -0.2334037536
 C          5.6869189745       -1.1174372707        0.6989001971
 C          5.8472564668       -2.3119755211        1.3562767635
 C          7.1538350211       -2.7141781830        1.6946837805
 C          8.2677669321       -1.9659404249        1.3975250790
 C          8.1374120107       -0.7301015439        0.7210020629
 C          9.1588006809        0.1714463301        0.3371235997
 C          8.8416589809        1.3385818721       -0.3154577766
 C          7.5198633262        1.7047661527       -0.6357190997
 C          6.5050496829        0.8517291220       -0.2770562693
 C          6.8377934579       -0.3509484521        0.3941830895
 C         -2.1433696113        1.6726620215       -0.7636902226
 C         -3.4734957419        1.3739135330       -0.5753254551
 C         -7.3698183957        0.9021843238        0.1970151385
 C         -8.1830355418        1.8376327795        0.8070522630
 H         -8.3298569454        3.3686403647        2.2984077157
 H         -5.9868388617        3.1052116633        3.0342451243
 H         -4.5360225155        1.4321942332        1.9666152647
 H         -4.5657585404       -1.6103760323       -2.1439411211
 H         -5.4842996015       -3.8006875958       -2.7793166851
 H         -7.1934546056       -4.8887335707       -1.3671315486
 H         -7.9667164380       -3.7708082790        0.6947120968
 H         -7.0369191960       -1.5896111094        1.3428835131
 H         -3.1865893150       -1.9004035739        0.2282695575
 H         -0.8053732746       -1.3500592420       -0.0899652625
 H          0.1404707388        2.8529668958       -1.8242776556
 H          5.0027628951       -2.9327748896        1.6127432253
 H          7.2774582516       -3.6545337499        2.2127886779
 H          9.2496363380       -2.3172491437        1.6802166654
 H         10.1890444265       -0.0636636229        0.5619463400
 H          9.6374549292        2.0128213483       -0.5985075882
 H          7.3215659138        2.6334128614       -1.1481329326
 H         -1.8694512370        2.6813994021       -1.0317507200
 H         -4.2228850260        2.1408637389       -0.7060549495
 H         -7.7519663339        0.2857116775       -0.6034346766
 H         -9.2059496292        1.9481471480        0.4784817229
  60
  -97.7284278878000       3.050559850846012E-002 !
 C         -7.1987188958        2.4853624695        2.5040869229
 C         -7.8843156980        1.8494418919        1.4821021839
 C         -7.2346716941        0.9590445015        0.6489061672
 C         -5.8810238916        0.6830992926        0.8372157431
 N         -5.2080546559       -0.2210078834        0.0066325181
 C         -5.8412447416       -1.3746764689       -0.4638118135
 C         -6.7952055242       -2.0348622787        0.3105858520
 C         -7.4274987453       -3.1619908068       -0.1769063536
 C         -7.1147899292       -3.6561624309       -1.4327390031
 C         -6.1578804740       -3.0123457649       -2.2000389804
 C         -5.5262155468       -1.8794183203       -1.7257355942
 C         -3.8696323895        0.0246262482       -0.3123186238
 C         -2.9237626430       -1.0023824647       -0.2791644645
 C         -1.5961375602       -0.7303268720       -0.5159983563
 C         -1.1711044059        0.5665991635       -0.8226795042
 C          0.2476988863        0.8311520597       -0.9904428434
 C          0.7634650415        1.9076098889       -1.7069263849
 N          2.0628836316        2.1358017141       -1.7784899598
 C          2.9297984573        1.3612373338       -1.1625910586
 N          4.2232863728        1.5958591251       -1.1751585649
 C          5.0383026542        0.7897439668       -0.5133100352
 C          4.5328945933       -0.3386082405        0.1930235215
 N          3.2430823368       -0.6179588022        0.2072167384
 C          2.3982954847        0.1811468689       -0.4215223310
 N          1.1090615838       -0.0106874774       -0.3956927597
 C          5.6420636116       -1.0114505325        0.8393544609
 C          5.7876150500       -2.1082770577        1.6521312511
 C          7.0805946228       -2.4299986829        2.1081102842
 C          8.1950380229       -1.6976913074        1.7751700957
 C          8.0794385920       -0.5621989624        0.9388246221
 C          9.1028585233        0.3108815407        0.4988350800
 C          8.7995499288        1.3794197480       -0.3104473219
 C          7.4900923511        1.6709980714       -0.7397093947
 C          6.4733390461        0.8436181947       -0.3299522369
 C          6.7929292412       -0.2604526349        0.4989152044
 C         -2.1271157588        1.5824067037       -0.8979548557
 C         -3.4528653339        1.3175178504       -0.6380181905
 C         -5.1959892612        1.3235362132        1.8703585180
 C         -5.8519668956        2.2199660704        2.6906762919
 H         -7.7099799843        3.1817474115        3.1511814760
 H         -8.9331717556        2.0545920109        1.3261329734
 H         -7.7697429625        0.4748732129       -0.1547759804
 H         -7.0332872169       -1.6606533635        1.2954240713
 H         -8.1650473170       -3.6628548919        0.4329411359
 H         -7.6116117910       -4.5372789671       -1.8096020081
 H         -5.9078530906       -3.3890236414       -3.1809833940
 H         -4.7906043664       -1.3712860362       -2.3320853197
 H         -3.2407858911       -2.0066189542       -0.0386602850
 H         -0.8571119390       -1.5137969597       -0.4539858942
 H          0.1317845683        2.5918042141       -2.2513737952
 H          4.9412750716       -2.7111553786        1.9428735947
 H          7.1926228172       -3.2918101802        2.7505539307
 H          9.1659408270       -1.9839654903        2.1531266515
 H         10.1236076080        0.1319607465        0.8043159794
 H          9.5968722172        2.0327978849       -0.6350745249
 H          7.3023445649        2.5256175058       -1.3711091800
 H         -1.8270856300        2.5930646488       -1.1296951066
 H         -4.1826719173        2.1132582256       -0.6720309960
 H         -4.1493273434        1.1075214151        2.0275713299
 H         -5.3098350800        2.7036011436        3.4899335300
  60
  -97.7283885453000       2.926166196522966E-002 !
 C         -8.2952845151        2.6162842108       -0.1610129299
 C         -7.2716963459        2.7917208354        0.7559307167
 C         -6.2384041884        1.8780246967        0.8352801819
 C         -6.2140296874        0.7730910271       -0.0143904995
 N         -5.1685371815       -0.1584552383        0.0565839229
 C         -5.4609906534       -1.5203371385       -0.1136603129
 C         -4.6204678025       -2.3424283914       -0.8632418686
 C         -4.9175021844       -3.6824065399       -1.0189311211
 C         -6.0575035910       -4.2200532257       -0.4441206983
 C         -6.9021403968       -3.4044031819        0.2907944723
 C         -6.6084549582       -2.0651004818        0.4606980377
 C         -3.8511941275        0.2595225122        0.2088254250
 C         -2.9134435491       -0.5627333557        0.8435744761
 C         -1.5921657810       -0.1921887241        0.9149747622
 C         -1.1545057193        1.0250611991        0.3801150318
 C          0.2632359015        1.3307805048        0.3698861627
 C          0.7927107916        2.6046494538        0.1729038291
 N          2.0909229132        2.8028831989        0.0346527606
 C          2.9456509494        1.8037484618        0.0787412071
 N          4.2289572162        1.9562978480       -0.1597403761
 C          5.0341561069        0.9082330066       -0.0858815299
 C          4.5349112448       -0.3697361774        0.2943211524
 N          3.2508180725       -0.5604158417        0.5343125150
 C          2.4086822886        0.4507374207        0.4047708020
 N          1.1191809028        0.3053050154        0.5208811579
 C          5.6375366514       -1.3112351297        0.2970325147
 C          5.7882585119       -2.6493197084        0.5645817656
 C          7.0695831301       -3.2158027741        0.4201325991
 C          8.1672548083       -2.4917928939        0.0203530912
 C          8.0461761173       -1.1109200796       -0.2634524991
 C          9.0513803023       -0.2132026922       -0.6959637678
 C          8.7454946858        1.1053838550       -0.9330807992
 C          7.4514683689        1.6357854536       -0.7658807446
 C          6.4526911720        0.7907155950       -0.3484320942
 C          6.7733571011       -0.5680667466       -0.1062407945
 C         -2.1035247655        1.8695841829       -0.2026790718
 C         -3.4243004683        1.4930895290       -0.2928970221
 C         -7.2462666208        0.6007516942       -0.9357418259
 C         -8.2782018956        1.5164036474       -1.0030145732
 H         -9.1014853531        3.3316721300       -0.2187795683
 H         -7.2813592011        3.6433541379        1.4201254914
 H         -5.4451024211        2.0105498626        1.5564061696
 H         -3.7375598627       -1.9235898757       -1.3233196201
 H         -4.2578745503       -4.3085641632       -1.6013722421
 H         -6.2869989019       -5.2671507890       -0.5699723264
 H         -7.7925342458       -3.8154024251        0.7430935373
 H         -7.2631267334       -1.4317393182        1.0414528540
 H         -3.2345954284       -1.5024668728        1.2679328999
 H         -0.8676178716       -0.8388498996        1.3845954499
 H          0.1727595494        3.4862064801        0.1310666943
 H          4.9546253876       -3.2603846974        0.8744265764
 H          7.1856050384       -4.2693891527        0.6311009026
 H          9.1287972275       -2.9740097343       -0.0812759521
 H         10.0596794564       -0.5726878838       -0.8420904133
 H          9.5279689902        1.7726136587       -1.2656453183
 H          7.2605256768        2.6784546175       -0.9674825342
 H         -1.7983369062        2.8101371021       -0.6353462505
 H         -4.1346408003        2.1411035909       -0.7847433434
 H         -7.2290150996       -0.2520723580       -1.5985432883
 H         -9.0703977174        1.3732707689       -1.7230471109
  60
  -97.7281411171000       2.252106174669112E-002 !
 C         -7.0775383650        2.5468528042        2.4650179228
 C         -5.7362171483        2.2472626597        2.6385576027
 C         -5.1133667408        1.3294365968        1.8160452161
 C         -5.8279722970        0.7009487623        0.7963082395
 N         -5.1922202792       -0.2302031564       -0.0366857749
 C         -5.8542018402       -1.3969942705       -0.4287973924
 C         -5.6052084630       -1.9580763512       -1.6813665694
 C         -6.2677799270       -3.1047593573       -2.0737357624
 C         -7.1897361379       -3.7061666079       -1.2327435236
 C         -7.4386270387       -3.1540501013        0.0131411339
 C         -6.7758032531       -2.0122510449        0.4184243547
 C         -3.8623746100       -0.0085370431       -0.3982529262
 C         -2.9278130692       -1.0468820680       -0.3955796515
 C         -1.6014053577       -0.7874530239       -0.6541127968
 C         -1.1659320885        0.5078366625       -0.9523898963
 C          0.2537016190        0.7717807077       -1.1122898452
 C          0.7707635813        1.8643656001       -1.8034425351
 N          2.0668959687        2.1184262773       -1.8313431824
 C          2.9285063927        1.3528992096       -1.1972197290
 N          4.2130642331        1.6269771166       -1.1430240706
 C          5.0236759778        0.8206601688       -0.4764132494
 C          4.5265601499       -0.3555931164        0.1535859819
 N          3.2450665802       -0.6689134670        0.1074778273
 C          2.4005970010        0.1374679228       -0.5126990563
 N          1.1140422960       -0.0742476077       -0.5215261665
 C          5.6304114964       -1.0250121834        0.8129638050
 C          5.7806311085       -2.1582209594        1.5733647978
 C          7.0635107497       -2.4601036268        2.0696744753
 C          8.1638620969       -1.6728095198        1.8277387458
 C          8.0433596491       -0.4985172344        1.0476906290
 C          9.0520064418        0.4329271710        0.7035209288
 C          8.7460051152        1.5321154631       -0.0623961018
 C          7.4478705693        1.7986102392       -0.5396077589
 C          6.4457571461        0.9146316936       -0.2227771348
 C          6.7676423185       -0.2191102354        0.5639306855
 C         -2.1136061684        1.5330077356       -1.0098523986
 C         -3.4372047552        1.2806635171       -0.7298880780
 C         -7.1760028833        1.0095928605        0.6217214112
 C         -7.7921144686        1.9231169688        1.4554044666
 H         -7.5623084813        3.2612186391        3.1128542905
 H         -5.1720266614        2.7237087841        3.4267197275
 H         -4.0704466587        1.0878643574        1.9603126547
 H         -4.8957807416       -1.4839070154       -2.3437883606
 H         -6.0698754900       -3.5261022733       -3.0483582818
 H         -7.7100418334       -4.5986662325       -1.5453463289
 H         -8.1492598142       -3.6204990126        0.6795533962
 H         -6.9641632131       -1.5913808108        1.3951605530
 H         -3.2500285218       -2.0494536084       -0.1551256235
 H         -0.8709261286       -1.5801026808       -0.6100934788
 H          0.1431644765        2.5436631727       -2.3586114502
 H          4.9450808408       -2.8042165323        1.7943781283
 H          7.1789306398       -3.3514390747        2.6698040316
 H          9.1269530846       -1.9454175035        2.2345592372
 H         10.0632624511        0.2749153649        1.0493558411
 H          9.5314891885        2.2311364311       -0.3122273236
 H          7.2570947412        2.6784513696       -1.1343846466
 H         -1.8071105087        2.5421897600       -1.2393065961
 H         -4.1582151997        2.0848496103       -0.7478981178
 H         -7.7326932370        0.5301672793       -0.1701148440
 H         -8.8366018186        2.1561507471        1.3097336073
  60
  -97.7279332387000       1.807401187440307E-002 !
 C         -8.2984990329        2.5695371604       -0.3391737435
 C         -7.3283868898        2.7722039690        0.6288687750
 C         -6.2880518529        1.8749411250        0.7762199485
 C         -6.2029622470        0.7599101649       -0.0558213185
 N         -5.1480393738       -0.1543296870        0.0808726941
 C         -5.4183362885       -1.5221559147       -0.0820852290
 C         -4.5485973049       -2.3442524672       -0.7973096359
 C         -4.8296157276       -3.6883013994       -0.9476726027
 C         -5.9816656311       -4.2300599532       -0.4014783227
 C         -6.8545902797       -3.4146649787        0.2998691177
 C         -6.5775029684       -2.0711691107        0.4639939483
 C         -3.8421965467        0.2848518533        0.2625831197
 C         -2.9075626869       -0.5230620796        0.9203158668
 C         -1.5906583020       -0.1413612905        1.0065515120
 C         -1.1552542463        1.0748872026        0.4674288259
 C          0.2629726843        1.3778428931        0.4524455905
 C          0.8009390840        2.6470444332        0.2496931274
 N          2.1000122816        2.8346862567        0.1015777300
 C          2.9468679551        1.8282169721        0.1346691700
 N          4.2296743447        1.9703312941       -0.1132234660
 C          5.0239920429        0.9121749735       -0.0634343043
 C          4.5136985457       -0.3660119936        0.3007008526
 N          3.2318084794       -0.5449001913        0.5591510913
 C          2.4003422825        0.4780559373        0.4564155576
 N          1.1117898024        0.3448943762        0.5919472303
 C          5.6016104256       -1.3234275876        0.2634401402
 C          5.7347672890       -2.6699823964        0.4950289012
 C          7.0035809282       -3.2531266817        0.3121782840
 C          8.1054204956       -2.5365562033       -0.0895666921
 C          8.0020097813       -1.1471240872       -0.3365220804
 C          9.0134968612       -0.2550612717       -0.7659695259
 C          8.7241478183        1.0732949530       -0.9666843307
 C          7.4414820721        1.6192670339       -0.7654434785
 C          6.4366862959        0.7802037097       -0.3501496069
 C          6.7411946814       -0.5882503065       -0.1431550797
 C         -2.1043143756        1.9117863772       -0.1255228234
 C         -3.4203031507        1.5227592792       -0.2331535594
 C         -7.1823837534        0.5590369836       -1.0275098400
 C         -8.2218099562        1.4584183671       -1.1629490154
 H         -9.1098443847        3.2726004390       -0.4507403019
 H         -7.3865174243        3.6317269935        1.2802846049
 H         -5.5360413383        2.0283479778        1.5363681571
 H         -3.6560671119       -1.9226413344       -1.2356524033
 H         -4.1474607576       -4.3145875169       -1.5033733376
 H         -6.1984984688       -5.2803285503       -0.5236796581
 H         -7.7548890808       -3.8287209838        0.7292848931
 H         -7.2553015944       -1.4368884557        1.0164562265
 H         -3.2264683690       -1.4624924353        1.3469453511
 H         -0.8670571371       -0.7794842279        1.4890214364
 H          0.1873732042        3.5332668719        0.2097448935
 H          4.8968306915       -3.2748514620        0.8054706181
 H          7.1060187611       -4.3135132019        0.4941985411
 H          9.0565932753       -3.0316037842       -0.2223174843
 H         10.0131206923       -0.6265560631       -0.9390826902
 H          9.5112372821        1.7361321627       -1.2971334966
 H          7.2632949353        2.6688855018       -0.9410027025
 H         -1.8017341133        2.8545519758       -0.5552921598
 H         -4.1288488802        2.1632382641       -0.7371103531
 H         -7.1170433988       -0.3022159641       -1.6762938575
 H         -8.9711946551        1.2951100985       -1.9233662435
