  52
  -75.0728464470000        1.00000000000000      !
 C         -5.6494986265        1.6064631438       -0.1247245826
 C         -4.9594557419        0.8517381258       -1.0586815096
 C         -3.5789401524        0.7951505229       -1.0258535408
 C         -2.8676651892        1.4958138096       -0.0561126277
 C         -1.3947396031        1.4547705766       -0.0138720321
 C         -0.6823702029        2.6493172758       -0.0008865913
 C          0.6970650708        2.6460021525        0.0040538973
 C          1.4045268378        1.4483359309        0.0127589265
 C          2.8775747939        1.4862827806        0.0541374398
 C          3.5893633115        0.7798851780        1.0193151208
 C          4.9697776315        0.8392605400        1.0539921370
 C          5.6592748153        1.6025626816        0.1266375569
 C          4.9594723363        2.3148149634       -0.8323667740
 C          3.5782109859        2.2611766607       -0.8656454224
 C          0.7015378835        0.2385864316        0.0069622152
 C          1.4346886834       -1.0438951282        0.0088139452
 C          1.2141703634       -1.9858154478        1.0086881875
 C          1.9026334897       -3.1843419821        1.0053694290
 C          2.8167475502       -3.4592658330        0.0024245151
 C          3.0419838516       -2.5273212989       -0.9964604535
 C          2.3577471886       -1.3263126205       -0.9930388438
 C         -0.6969726532        0.2420072307       -0.0098037762
 C         -1.4383943702       -1.0357900070       -0.0106016085
 C         -1.2299019255       -1.9789226449       -1.0117430173
 C         -1.9294540682       -3.1710716719       -1.0064670186
 C         -2.8421747987       -3.4383147189       -0.0002421776
 C         -3.0548364766       -2.5053570723        1.0004666223
 C         -2.3597620609       -1.3107404154        0.9949854247
 C         -3.5686506162        2.2639262175        0.8689276959
 C         -4.9501015168        2.3144264271        0.8377320439
 H         -6.7286559880        1.6449323010       -0.1487205102
 H         -5.4998560197        0.3041108541       -1.8170541880
 H         -3.0450372276        0.2132051248       -1.7624686712
 H         -1.2218089288        3.5854092674       -0.0134898228
 H          1.2406381262        3.5796445134        0.0210003355
 H          3.0560030946        0.1917569655        1.7513861688
 H          5.5106133201        0.2876689908        1.8091510487
 H          6.7382382629        1.6434943090        0.1522396819
 H          5.4917736574        2.9137418546       -1.5572651414
 H          3.0332146076        2.8096521397       -1.6211867731
 H          0.5068959582       -1.7704530673        1.7967323144
 H          1.7249386749       -3.9065543122        1.7889810081
 H          3.3527728189       -4.3970043186       -0.0001801066
 H          3.7539019733       -2.7367885359       -1.7816524848
 H          2.5304390212       -0.6022704875       -1.7765964531
 H         -0.5230937234       -1.7695976358       -1.8018788389
 H         -1.7615517092       -3.8945639449       -1.7910531912
 H         -3.3867111017       -4.3711165816        0.0039663053
 H         -3.7653351078       -2.7090946734        1.7885107890
 H         -2.5228708138       -0.5853017489        1.7794612378
 H         -3.0238679539        2.8084019231        1.6275563527
 H         -5.4827666739        2.9073920437        1.5672751811
