93
 energy: -134.828949344833 gnorm: 0.000065098723 xtb: 6.7.1 (edcfbbe)
C           -9.03271243023291        3.35534130446260       -1.40479066830909
C           -7.94160523835580        2.38570052938077       -1.06384067911944
C           -7.70152594841631        1.28148572235797       -1.87170073433911
C           -6.69338348396709        0.37838819067199       -1.58375272109086
C           -6.47688471000884       -0.78700058666988       -2.50459802017945
C           -5.86904067244191        0.55889713584959       -0.45715941106952
B           -4.70029711551755       -0.44263667882375       -0.13864642549396
C           -3.26459019349172        0.11680486771450        0.04872943157971
C           -2.87470069256847        1.35113493927549       -0.50036388352441
C           -1.60234389920286        1.85078836931618       -0.34450852685131
C           -0.65610178182391        1.13329030616567        0.38839849576809
N            0.64312610798562        1.63847794638379        0.55610193123609
C            0.96467161275844        2.90945904163543        0.99467640226962
C            0.13065641627584        3.94066291188729        1.39644380487678
C            0.71891296008691        5.12045317819441        1.81638235478022
C            2.10446155034833        5.27355036053186        1.84114395996059
C            2.94204287984882        4.24440686573582        1.46376246597416
C            2.37407970621662        3.04530205953453        1.04361922183753
C            2.91549894077366        1.79433723162506        0.61336635194461
C            4.20907388291118        1.32080107142172        0.44313251938370
C            4.38060025878173        0.02468042180523       -0.01824799104423
N            5.68898068407567       -0.48767832039230       -0.19406347457562
C            6.10451798836757       -1.57390613025381        0.54162634455456
C            5.31643450012165       -2.17446122187918        1.53230396330491
C            5.77323654238738       -3.26192455840788        2.23287688346901
C            7.05637028555847       -3.79244973273065        1.97965745080282
C            7.87095264455075       -3.19653063672449        1.04618044219310
C            7.42810737152327       -2.08981280096104        0.32794430618019
O            8.28178119061778       -1.51035650791453       -0.54429464255221
C            7.86918001512984       -0.43187526777869       -1.24577378644458
C            8.75992838944430        0.14868755352198       -2.14374302723624
C            8.37315738392688        1.21887163201658       -2.91509832640802
C            7.05533173152497        1.71467692181041       -2.81750676708140
C            6.16355835465312        1.15943926752399       -1.93515307230497
C            6.54156839298476        0.09838716055271       -1.10176489235203
C            3.28304715012108       -0.79145323044476       -0.32851957534014
C            1.99044848554198       -0.33306134509013       -0.16900391614356
C            1.80488051357497        0.95261662868657        0.32149005103310
C           -1.01440218079112       -0.09241369014660        0.95141337185296
C           -2.28697627534841       -0.58488503857979        0.77575218087500
C           -4.93271864284160       -1.99176489237506       -0.00502852438844
C           -4.18406989112295       -2.91016061841996       -0.75673223814057
C           -3.15828727568831       -2.46269028947208       -1.76152285395945
C           -4.38623547778168       -4.27556306227470       -0.61099557352957
C           -5.32106554241199       -4.77918835315833        0.27768878873566
C           -5.54495346275400       -6.25415351176464        0.42446141074356
C           -6.06736602583997       -3.87367174169969        1.02069895816402
C           -5.88944315718954       -2.50750292446409        0.88910999295168
C           -6.71645209225735       -1.58229871855641        1.73340667262777
C           -6.11793016854632        1.67347299158962        0.35841120021218
C           -5.31567300563195        1.93967803004709        1.60224023420579
C           -7.13986974928200        2.56109581530636        0.05132246180062
H           -9.21923974967279        4.03826668935728       -0.57929629338557
H           -9.95577701038693        2.82753526525963       -1.63981188960985
H           -8.75393811451067        3.94312792939071       -2.28012851614993
H           -8.32090682212698        1.12595504551636       -2.74524966825568
H           -5.47841804050684       -0.75277542984527       -2.93744557909609
H           -7.20446304152655       -0.77964928272285       -3.31334590420966
H           -6.56724014046098       -1.72514628961536       -1.96067613654891
H           -3.59534180658764        1.91250975827724       -1.07819712907051
H           -1.31825840663345        2.78815212380860       -0.80167667440398
H           -0.94223199560911        3.82529554272450        1.39214621195986
H            0.09129397912515        5.93941327036905        2.13435938283739
H            2.52446962524465        6.21216739205787        2.17096646363481
H            4.01502201616144        4.35945840705807        1.49644851751449
H            5.06344804102649        1.93693216533800        0.67864063876762
H            4.34039866318673       -1.76678751119295        1.74365303319609
H            5.15117092914838       -3.71231511735385        2.98942286269717
H            7.40016668456810       -4.65184178335398        2.53144077137497
H            8.86670334360019       -3.56184217415454        0.84995912146833
H            9.75121252056504       -0.27049276597171       -2.21547790256454
H            9.06601133556442        1.66878712689243       -3.60702471400953
H            6.74620459520165        2.53212151120193       -3.44869048223892
H            5.15403308269384        1.53554893471245       -1.88004996288975
H            3.46311556064884       -1.78208895153392       -0.71732701524700
H            1.15034382502734       -0.95465899330685       -0.43604363689993
H           -0.28977104285212       -0.63613663347497        1.54148336611079
H           -2.55398835063994       -1.53116154368774        1.22487385659311
H           -2.15482405598147       -2.57776007608007       -1.35022144788219
H           -3.29226819405956       -1.41941926823513       -2.03103689505464
H           -3.22120804978070       -3.07301643573574       -2.66155920001785
H           -3.79865126146982       -4.96033912038893       -1.20867721644569
H           -6.47384258575087       -6.54369195752854       -0.06848993507223
H           -4.73061027775636       -6.81837886341264       -0.02427953066579
H           -5.62679900074371       -6.52866136552517        1.47489918520383
H           -6.80496728755185       -4.24862463786542        1.71799777650188
H           -7.41094520148994       -2.14409029631097        2.35432785555455
H           -6.07921509042387       -0.98355740480166        2.38222722840629
H           -7.28292719678197       -0.89702152717791        1.10603355448860
H           -4.78247683076492        1.05270067011580        1.93086003401473
H           -5.96752240954438        2.28038831851706        2.40559593938797
H           -4.58087144605235        2.72326061165720        1.41432559890697
H           -7.31332667534068        3.40778390480345        0.70267789513256
