93
 energy: -134.828856149539 gnorm: 0.000065318888 xtb: 6.7.1 (edcfbbe)
C           -9.09850393475281        3.08067042186276       -1.62038755682588
C           -7.97885367523958        2.18156706485707       -1.19017308795084
C           -7.75634708153621        0.97295019009544       -1.83765891677998
C           -6.73793081955323        0.11999203111017       -1.44997864534244
C           -6.53999464138979       -1.16450456507772       -2.20100978565906
C           -5.88518685311845        0.45980895476689       -0.38312531022612
B           -4.70359122292432       -0.48472212033572        0.04365348947418
C           -3.26653752481995        0.09968384318402        0.11005704629825
C           -2.89675574008959        1.23712722142515       -0.62830814083345
C           -1.62378880044818        1.75762055424237       -0.57923610731954
C           -0.65835336704552        1.16298896243326        0.23355934584257
N            0.64056338720675        1.69391976461438        0.29663907243140
C            0.95842132116009        3.01764310066349        0.53546233568640
C            0.12246911718814        4.08991963210153        0.80413041048979
C            0.70709753495705        5.32272402371445        1.03232970933206
C            2.09115264513706        5.48832460100732        1.00103803761491
C            2.93103996392723        4.42159450769403        0.75689695670469
C            2.36663323661867        3.17050249188903        0.52675636958112
C            2.91164953049510        1.87292534192589        0.27606702117394
C            4.20626099583163        1.38833206042390        0.15234595630925
C            4.38134479001855        0.04264898420471       -0.13065472236717
N            5.69207959199854       -0.47937274154537       -0.26153870114955
C            6.54687073783303       -0.46429588463712        0.81605656275371
C            6.17274016776801       -0.00667766189152        2.08668605329288
C            7.06654522260808       -0.00684348537896        3.12697528876458
C            8.38375500996737       -0.48232136612490        2.94347823432654
C            8.76760236363918       -0.97861438753201        1.72067902871651
C            7.87501946327261       -0.99090130338803        0.65260145777609
O            8.28423258659278       -1.52913918852689       -0.51647862510884
C            7.43051088620131       -1.55096559988874       -1.56261344521355
C            7.87161721678616       -2.10059971296716       -2.76301765223494
C            7.05546090016314       -2.10362192746851       -3.86888024081439
C            5.77113173635783       -1.52049690189850       -3.79657830176232
C            5.31543176358019       -0.97827079261942       -2.62205809153482
C            6.10565257942710       -1.00105029389804       -1.46501019431914
C            3.28672163342738       -0.81747899742443       -0.29644529489200
C            1.99320981521874       -0.35374453811507       -0.16035061834827
C            1.80406690431524        0.98901504655934        0.13855612868795
C           -0.99664262185613        0.03685374876361        0.98455569200825
C           -2.26964899147375       -0.48068623901221        0.91324831187312
C           -4.92348918504710       -1.99844241211739        0.40576874221959
C           -4.18613148089164       -3.01354860816923       -0.22235434386727
C           -3.18689349327920       -2.71248872810999       -1.30537231389705
C           -4.37525563582715       -4.34424134037639        0.12464433636211
C           -5.28566677125036       -4.71673389239329        1.09877786251052
C           -5.49332306155207       -6.15422754668806        1.46989101892939
C           -6.02107057123207       -3.71542436813606        1.72020335570596
C           -5.85614850490348       -2.38237056334958        1.38752295001716
C           -6.67102523495475       -1.34761045530839        2.10738482075350
C           -6.11638460091497        1.67954510022383        0.27088025519678
C           -5.28148725108801        2.12172662404388        1.44096633227951
C           -7.14922007070396        2.51431925088295       -0.13288765786974
H           -9.08600886294298        3.21956006985370       -2.70048466645556
H           -9.02306743233204        4.05373824747345       -1.14067973340248
H          -10.05938934430467        2.63953068927372       -1.35327038865041
H           -8.39706188924297        0.69470888247299       -2.66407148320209
H           -5.55450870563542       -1.18994670335008       -2.66331548155769
H           -7.29028017265827       -1.27456464370942       -2.98103563443834
H           -6.60855705205199       -2.01555303561522       -1.52639075657884
H           -3.63365615392048        1.70307476633511       -1.26726484226672
H           -1.35542793015060        2.61592892749324       -1.17897733417247
H           -0.94867654675475        3.96580011048879        0.84625469188917
H            0.07804814593212        6.17461902552740        1.24286180501566
H            2.50817873100860        6.46830879182570        1.17963540231509
H            4.00316313394980        4.54823272845607        0.74635826282486
H            5.05855683328077        2.04316132138503        0.25154374396940
H            5.16468400234799        0.34483206884173        2.24136724351337
H            6.76090725018879        0.35174444234183        4.09657883343294
H            9.07781449729879       -0.47042203357607        3.76769816752417
H            9.75814307010796       -1.37289010948958        1.55662658959201
H            8.86744576866486       -2.51392831457380       -2.79464370654009
H            7.39783856677605       -2.53304647871864       -4.79600839080478
H            5.14815303451411       -1.49583012570933       -4.67601627089683
H            4.33898291349796       -0.52164609025009       -2.58040504465476
H            3.46897822980043       -1.85813820849524       -0.51735613552276
H            1.15547134110582       -1.02071343606324       -0.28864238592837
H           -0.25628159914497       -0.40886134383312        1.63423556467686
H           -2.52111425014780       -1.34857166162554        1.50658511993510
H           -3.34340178602581       -1.72524655920861       -1.72950739245293
H           -3.25603998631474       -3.45517750131130       -2.09913397153079
H           -2.17421143879139       -2.74847941720712       -0.90221030508540
H           -3.79686508376059       -5.10623105429948       -0.38153921980423
H           -4.74995786275328       -6.79059376662323        0.99543834168703
H           -5.42862233312367       -6.28443144997030        2.54939789007108
H           -6.48286299529626       -6.48608894481613        1.15434245697527
H           -6.73992027368822       -3.98832262041799        2.48155606336660
H           -7.25780508581505       -0.76439122574010        1.40055313309318
H           -7.34605588381434       -1.81605568275542        2.82038584035778
H           -6.02408743282301       -0.65716120084797        2.64610530849252
H           -5.91216311847197        2.57658922546487        2.20367613723328
H           -4.55353989294154        2.86830522681430        1.12161962262548
H           -4.73785824629280        1.29080490133486        1.88037698774068
H           -7.30785772485310        3.44610499599362        0.39423110024543
