  105
       -164.59812685
 O         -9.5147059058        2.8272917818        0.3454430515
 P         -8.6515114628        1.6576564759        0.1403777859
 C         -8.4776719209        0.6039856085        1.6199510007
 C         -7.7480223375        1.1339378303        2.6756594326
 C         -7.5881893595        0.4072328688        3.8402214097
 C         -8.1642796977       -0.8485953188        3.9527316957
 C         -8.9063139750       -1.3701830793        2.9060855455
 C         -9.0662786184       -0.6445442402        1.7377991802
 C         -9.1999367606        0.5787881652       -1.2166667904
 C        -10.3373974003        0.9649644388       -1.9117853629
 C        -10.7992399340        0.1961125547       -2.9651829850
 C        -10.1197434515       -0.9557710484       -3.3267708419
 C         -8.9796644482       -1.3391957905       -2.6358962273
 C         -8.5160943066       -0.5752224683       -1.5812894146
 C         -6.9393666955        2.1115796028       -0.2607403099
 C         -6.6702892278        3.3923436752       -0.7385604689
 C         -5.3820473143        3.7990351328       -1.0420848059
 C         -4.3000524562        2.9403157686       -0.8739918227
 C         -4.5392307758        1.6629876482       -0.3954820619
 C         -5.8561812862        1.2583048017       -0.0994930265
 O         -5.9028332878       -0.0179832104        0.3622654392
 C         -4.6257445257       -0.4701271427        0.3852164591
 C         -4.1745699028       -1.7278637529        0.8034387157
 C         -2.8369035689       -1.9802533399        0.7496603578
 C         -1.8640665867       -1.0182260532        0.2702081415
 C         -0.4948532495       -1.3215932859        0.2102237212
 C          0.4499662681       -0.4796399536       -0.4804856609
 C          1.7728076284       -0.7817327593       -0.5478067798
 C          2.3037827654       -1.9319825918        0.0787009590
 C          3.7528567571       -2.2933451588       -0.0886128361
 C          4.6662579807       -1.0911794126       -0.0937936394
 C          4.4367895591       -0.0408203937        0.7895565914
 C          5.2875388773        1.0446361193        0.8335261775
 C          6.3890708792        1.1016729660       -0.0161725724
 N          7.2468408435        2.2089861223        0.0129531730
 C          6.8573487524        3.5314292539       -0.0546776816
 C          5.5889430871        4.0714738948       -0.2156171554
 C          5.4776905337        5.4476199247       -0.2784982457
 C          6.5970234910        6.2720046146       -0.1926775008
 C          7.8648917889        5.7388867395       -0.0585874621
 C          8.0022339021        4.3596157788        0.0057742338
 C          9.1346811734        3.4815854165        0.1193411117
 C         10.5015172593        3.6943711315        0.2280115479
 C         11.3343377252        2.5977642380        0.3441939109
 C         10.8180312618        1.3043710990        0.3691461928
 C          9.4608010156        1.0670085668        0.2617243774
 C          8.6219332659        2.1634613825        0.1182626175
 C          6.6290457890        0.0501627231       -0.8957465460
 C          5.7780237877       -1.0373234038       -0.9249072952
 C          3.8053270181       -3.1268272319       -1.3577652046
 C          3.4597988710       -2.7641499605       -2.6436028338
 C          3.5564579359       -3.7123500752       -3.6505502139
 C          3.9749658911       -5.0077686910       -3.3716358660
 C          4.3133965105       -5.3805658315       -2.0825648238
 C          4.2298156400       -4.4358302142       -1.0714717035
 C          4.5269999297       -4.5280468308        0.3447507350
 C          5.0043257048       -5.5830602719        1.1074681695
 C          5.2012452060       -5.3862946600        2.4640818842
 C          4.9294688278       -4.1596612711        3.0512244909
 C          4.4533498754       -3.0975466894        2.2922469034
 C          4.2518200157       -3.2886320235        0.9434001346
 C          1.4005148151       -2.7845732421        0.7474927213
 C          0.0722924875       -2.5006102467        0.8169587544
 C         -2.3725230936        0.2628832460       -0.1458793139
 C         -3.7116617917        0.5197986118       -0.0813076467
 H         -7.3094901931        2.1182315145        2.5684317233
 H         -7.0146387340        0.8156027545        4.6599398463
 H         -8.0369717764       -1.4199260700        4.8608387220
 H         -9.3603057037       -2.3463180799        2.9991361364
 H         -9.6435901568       -1.0473467151        0.9169497211
 H        -10.8465527290        1.8681111819       -1.6067840591
 H        -11.6864240618        0.4939052278       -3.5051316981
 H        -10.4774028265       -1.5575200050       -4.1495843021
 H         -8.4533750934       -2.2390397634       -2.9213676492
 H         -7.6339450098       -0.8720904755       -1.0342041343
 H         -7.5055063410        4.0681554795       -0.8515855159
 H         -5.2134187782        4.8003386105       -1.4085823840
 H         -3.2960668528        3.2621630992       -1.1036596360
 H         -4.8776917721       -2.4669573333        1.1546466996
 H         -2.4925571568       -2.9554223200        1.0487562811
 H          0.0968965078        0.3983880957       -0.9957847245
 H          2.4423344807       -0.1275816262       -1.0891960610
 H          3.5793831839       -0.0753096285        1.4460873661
 H          5.1139932257        1.8462110108        1.5359157263
 H          4.7179441247        3.4393862612       -0.2997789159
 H          4.5015531623        5.8931835154       -0.3998197632
 H          6.4684134423        7.3428837162       -0.2422107128
 H          8.7332599638        6.3781633917       -0.0095586396
 H         10.9013897678        4.6969928074        0.2253659993
 H         12.4012494567        2.7414510795        0.4263829452
 H         11.4926175508        0.4682305303        0.4779514587
 H          9.0674909680        0.0624615893        0.3005996728
 H          7.4728057631        0.0989894136       -1.5676611765
 H          5.9712280353       -1.8475611569       -1.6123889902
 H          3.1259598293       -1.7616888753       -2.8667413261
 H          3.3007444557       -3.4410117181       -4.6641448479
 H          4.0344433756       -5.7309123991       -4.1718026326
 H          4.6360247738       -6.3885020427       -1.8674346121
 H          5.2173298310       -6.5387887686        0.6524688139
 H          5.5715181658       -6.1977194416        3.0735922772
 H          5.0903254800       -4.0270220361        4.1109111358
 H          4.2456484079       -2.1444948012        2.7556290253
 H          1.7822103178       -3.6757626088        1.2250752436
 H         -0.5653789393       -3.1668814191        1.3739295815
 H         -1.7016286480        1.0369041666       -0.4771509668
