105
 energy: -164.707730937199 gnorm: 0.000055816834 xtb: 6.7.1 (edcfbbe)
O           -9.34550899767716       -1.32061098271781       -0.69629454997960
P           -8.94720020570367       -0.06179140461775       -0.05690772406907
C           -8.41427401753108        1.22574322360888       -1.22676825119913
C           -8.84422171347081        1.09328795320438       -2.53863617376703
C           -8.47678587280116        2.03125087023326       -3.48658945667332
C           -7.67666695013828        3.10147730732136       -3.12180065743165
C           -7.24234394322089        3.23178754615350       -1.81199989871361
C           -7.61069054306663        2.29714463479074       -0.86199011030139
C          -10.27260909088522        0.68701254295297        0.94041811703397
C          -11.48793141216194        0.01935032838559        0.97416875721292
C          -12.54263259185018        0.53479924781054        1.70659758091981
C          -12.38135305204169        1.72057766326297        2.40388925052825
C          -11.16791056682800        2.39079601622875        2.36815576194671
C          -10.11264395818934        1.87817420656706        1.63675938225709
C           -7.53688117821032       -0.25089711537518        1.08275328022059
C           -7.61821347629499       -0.31630612632968        2.46516058575009
C           -6.48811916260139       -0.55725160700377        3.24189119138253
C           -5.24392266931160       -0.74757808962355        2.66938482071192
C           -5.13797246036735       -0.69637015797020        1.28516843443864
C           -6.28992955698468       -0.45280577208289        0.51372616748618
O           -6.02281432049691       -0.43071054275319       -0.81321617473318
C           -4.68693907149513       -0.66668565136050       -0.93319254688019
C           -3.96171208360045       -0.74069041808021       -2.10853943515307
C           -2.60792346106438       -0.99602315954189       -2.00502334719194
C           -1.97410033140067       -1.16683459454166       -0.76725279242107
C           -0.52903664106549       -1.43641417955662       -0.71290089189613
C            0.06361640067113       -2.33854075838151       -1.59161427364629
C            1.41944170503036       -2.59804814583926       -1.53345946633515
C            2.22588321318819       -1.94986828545858       -0.60713106848367
C            3.70101310703103       -2.27468462966197       -0.49103549296231
C            4.54509271107755       -1.05706406084532       -0.17810335122737
C            4.25685504939670        0.16602197745502       -0.77421768621070
C            5.05396310364140        1.26995417560492       -0.54631078526325
C            6.17356573821382        1.16648323491444        0.27382010450111
N            6.98827345165846        2.28372631117730        0.50247137149063
C            7.51990097524059        3.10663946825113       -0.47011269574226
C            7.43300512260952        3.01233320769456       -1.85177972049003
C            8.08991596829951        3.96561554995164       -2.60570856734355
C            8.82500826802631        4.98699486588229       -2.00774084018881
C            8.93513344079019        5.07180906150122       -0.63437572677211
C            8.28392458243738        4.12487660822253        0.14518507048493
C            8.19959388320991        3.89887459564773        1.56072295687737
C            8.71599325992467        4.56128679892881        2.66656642271950
C            8.41822717188667        4.07906136637651        3.92525397943884
C            7.60500718852849        2.95980867271970        4.08953781936867
C            7.07945458623907        2.28394588163865        3.00519381101621
C            7.39395895477381        2.75020259575206        1.73669164529168
C            6.47578035800116       -0.05799143084847        0.86038998014378
C            5.66712010777539       -1.15530160837551        0.63492815068071
C            4.27871674920565       -2.92589129737243       -1.73380797289780
C            4.43907957217547       -2.38671960252987       -2.99210911421495
C            5.01367266845542       -3.17038054018972       -3.98379779576201
C            5.42341912137756       -4.46763514703615       -3.71606315467657
C            5.27091981643787       -5.01240905225221       -2.45140131283712
C            4.69778854829824       -4.23501493934916       -1.45864967464588
C            4.41740083527652       -4.52764053469004       -0.06241215305942
C            4.62693373305647       -5.67538577059939        0.68401447903063
C            4.25804955791297       -5.67536253032516        2.01943410676847
C            3.68873272379130       -4.55131451728560        2.59798128446863
C            3.47520938406766       -3.39878620114530        1.85386017542293
C            3.84583858409236       -3.39101292045889        0.52634307111641
C            1.63614585496778       -1.05206980689026        0.27608083050635
C            0.27981601454733       -0.80004955917458        0.22518612628859
C           -2.71205113070873       -1.08332214110880        0.40689294817217
C           -4.07380207826406       -0.83701152902939        0.32523640686991
H           -9.45383026050084        0.23979347021661       -2.79876592425355
H           -8.80907434436344        1.92745424842478       -4.50926794073271
H           -7.38400964559579        3.83387869886750       -3.86012282517985
H           -6.61050686081538        4.06291997772395       -1.53301208667711
H           -7.25799200799968        2.38887907464188        0.15616159356983
H          -11.58378725858624       -0.90434674664660        0.42194174989639
H          -13.48850615822117        0.01397830277920        1.73474263976594
H          -13.20215820229836        2.12595253862400        2.97734795863241
H          -11.04639203605373        3.31575298557195        2.91321517827193
H           -9.16593799560933        2.39734005160043        1.60780083100613
H           -8.57813862827514       -0.17502222715202        2.94118623424389
H           -6.59137244330621       -0.59854035756090        4.31600836114763
H           -4.37415282653969       -0.93569832353536        3.27991633429628
H           -4.44348849915435       -0.60410190272684       -3.06321109517347
H           -2.01247107510176       -1.04791921193208       -2.90416386341762
H           -0.54860954244519       -2.86113985025457       -2.31186347842325
H            1.85449836059006       -3.31330244701683       -2.21602348157154
H            3.38794693361770        0.26150110916076       -1.40897056858363
H            4.80661804628339        2.22136853698282       -0.99316984616552
H            6.88133826728224        2.21361948661199       -2.32448556475363
H            8.03550676310848        3.91561781639513       -3.68334660364858
H            9.32178639754339        5.71458535025900       -2.63224327457107
H            9.51826210383867        5.85345439541809       -0.17115080650477
H            9.33383699846687        5.43744298422849        2.53926444856664
H            8.81180641098037        4.57791676583722        4.79842300905601
H            7.37766018746932        2.61445464222094        5.08745814837924
H            6.43701459540207        1.42721063456480        3.14312901892005
H            7.35538958441965       -0.14978984167416        1.47976901092655
H            5.91758880008548       -2.10131561661970        1.09169695204137
H            4.12206519027861       -1.37700021077491       -3.20723243204685
H            5.14320695511057       -2.76383639790443       -4.97605039955078
H            5.86818426799467       -5.05892555159074       -4.50312186112853
H            5.59331075424934       -6.02198145933979       -2.24453575092525
H            5.06784295813905       -6.55282669780253        0.23496908318926
H            4.41380758142514       -6.56134247017926        2.61749050498234
H            3.40676532061676       -4.57227307005043        3.64043095915820
H            3.02975679562825       -2.52752810682133        2.31052312187062
H            2.24676956104870       -0.53564851066392        1.00285732748536
H           -0.15679800584440       -0.08548456294590        0.90787351703518
H           -2.23900201697425       -1.23165660854439        1.36560461363215
