105
 energy: -164.602248239369 gnorm: 0.000063317708 xtb: 6.7.1 (edcfbbe)
O           -9.51855405233810        2.82952301283340        0.34835116927590
P           -8.65899489265782        1.65435686000989        0.16015478918904
C           -8.49812942429990        0.61711531466103        1.65178723396563
C           -7.71223914935504        1.10900136419774        2.68475656345470
C           -7.58049094905015        0.38854270847903        3.85698259770015
C           -8.24186524459632       -0.82103362803041        4.00037328245629
C           -9.04093244555051       -1.30276885760212        2.97701269471797
C           -9.17224618672380       -0.58410203394990        1.80108260937448
C           -9.20381912212123        0.56180052028655       -1.18757595312844
C          -10.30466878842810        0.96923160339360       -1.92728136812227
C          -10.75613790905970        0.19379438713881       -2.98049339368928
C          -10.10326562221411       -0.98665175589311       -3.29543219586328
C           -9.00095936514042       -1.39257663350442       -2.55809551208585
C           -8.54721429581453       -0.62134842056902       -1.50430767555321
C           -6.94616736668465        2.10002764112726       -0.25449483419777
C           -6.68350800791482        3.37507360376965       -0.74517343825116
C           -5.39839418988782        3.77744565164389       -1.07385715404623
C           -4.31806061292540        2.91789155087673       -0.91859583591007
C           -4.55142811825382        1.64466643542086       -0.42668075477543
C           -5.86403270514767        1.24502826991381       -0.10453995880392
O           -5.90566173385346       -0.02703015741874        0.36833232788055
C           -4.62641983711832       -0.48003494991591        0.37234556277114
C           -4.17059883161645       -1.73655106640560        0.79508263635249
C           -2.83593866096956       -1.99210316850366        0.72315976763553
C           -1.86565212614257       -1.03776513258079        0.21878573355322
C           -0.50281666896441       -1.34165727027645        0.14449216062273
C            0.44422501513035       -0.49126545973572       -0.54384968027528
C            1.76684533320763       -0.78608545526595       -0.60852095776114
C            2.30370314743789       -1.93690406997360        0.01697334682625
C            3.75766214833700       -2.28809805648259       -0.13615051730534
C            4.66498297350193       -1.08035597659972       -0.12636266668946
C            4.41286770042152       -0.02794560777612        0.74797706951909
C            5.26286621697489        1.05738149929143        0.81198736605518
C            6.38713842593971        1.11231068286408       -0.00727144485276
N            7.24597107340269        2.21796231647435        0.04484951366134
C            6.86251537196083        3.54125384138316       -0.04006720221611
C            5.60042128566861        4.08502621351346       -0.23382199499282
C            5.49573809915965        5.46092404077312       -0.30853936374316
C            6.61565865574021        6.28235395271675       -0.20291676835961
C            7.87738902772280        5.74580116738773       -0.03415323657081
C            8.00798361667287        4.36628891857737        0.04398012658219
C            9.13418474900389        3.48615008919648        0.19248595400400
C           10.49820080742881        3.69658404640883        0.33887747183801
C           11.32475423939950        2.59933818581152        0.48432655635149
C           10.80473861524438        1.30719707752130        0.50046058630475
C            9.45058289976817        1.07224504610919        0.35649042598953
C            8.61828700113778        2.16947941292416        0.18497720539970
C            6.64867236288018        0.05915191906663       -0.87851852523474
C            5.79809790662338       -1.02803216238938       -0.92821344285434
C            3.84549650915987       -3.12480198269388       -1.40136158109487
C            3.52047987547529       -2.76909603495530       -2.69410957172678
C            3.64810320941432       -3.71932386158002       -3.69656414221399
C            4.08007106399410       -5.00643382767419       -3.40692518881211
C            4.39944407127266       -5.37156379091663       -2.10984517829533
C            4.28139129197561       -4.42590046651494       -1.10420491009187
C            4.54917859302419       -4.51176129553200        0.32036387175644
C            5.01876355393443       -5.56004037695118        1.09553732012181
C            5.18558680438663       -5.35726015254474        2.45568889042203
C            4.89217263496307       -4.13078346996940        3.03222595473119
C            4.42169002838625       -3.07609871987912        2.26056539579365
C            4.24877142134941       -3.27426487740674        0.90826825074991
C            1.39962508480392       -2.80400154631006        0.67135857072218
C            0.07141393779664       -2.53086784876793        0.73689408519591
C           -2.38210344847120        0.24449145766091       -0.20345795637343
C           -3.71994346004637        0.50224525603530       -0.11752347349302
H           -7.20848887972792        2.05863694211888        2.55611126666896
H           -6.96297075092487        0.76657027035524        4.65896454102389
H           -8.13728088678236       -1.38704581332036        4.91463935009422
H           -9.56266425465207       -2.24166438551582        3.09494035103358
H           -9.79461282043710       -0.95418396490251        0.99783439316060
H          -10.79468437082354        1.89352633035361       -1.65675291829793
H          -11.61511305871798        0.50785664314728       -3.55532802858017
H          -10.45323704526171       -1.59433215837217       -4.11726710954320
H           -8.49555569309433       -2.31468860175086       -2.80703060792928
H           -7.69432731153585       -0.93464443918240       -0.92105028727512
H           -7.51896032921468        4.05202535497794       -0.84936600785850
H           -5.23435606570991        4.77578417867015       -1.45040332147918
H           -3.31719142714626        3.23440371696463       -1.16873971446351
H           -4.87036275877063       -2.46970988215760        1.16488637514382
H           -2.48928384207272       -2.96412685136340        1.02960529770310
H            0.08717675847473        0.38623301729754       -1.05708756244244
H            2.43526995897333       -0.12781090150078       -1.14620653283053
H            3.53919381974583       -0.06014812195847        1.38284335744606
H            5.07034438954836        1.86067447100088        1.50743330440415
H            4.72897318832126        3.45583590358691       -0.33415275040010
H            4.52417760327918        5.90900578620167       -0.45552457222617
H            6.49200217553400        7.35326286030457       -0.26351183510666
H            8.74687011360534        6.38211919273314        0.03169880837134
H           10.89981776683417        4.69855497686148        0.34290429398799
H           12.38920456891767        2.74105114873775        0.59706767509256
H           11.47415370015465        0.47004640797391        0.63222105373130
H            9.05442903839590        0.06850477274487        0.38882090686378
H            7.51111936550931        0.10500333495406       -1.52649344919622
H            6.01111747010089       -1.84033244774248       -1.60741078657765
H            3.17866503288575       -1.77142413064313       -2.92588777072620
H            3.40648624366544       -3.45435872618026       -4.71532134838609
H            4.16597333368254       -5.73074949816334       -4.20361607327970
H            4.73327383943389       -6.37391806407879       -1.88635776598051
H            5.24957780196315       -6.51565035656570        0.64890292609574
H            5.54955691831863       -6.16350401386658        3.07573940882784
H            5.03068661121533       -3.99301797697193        4.09443237301214
H            4.19519293873841       -2.12339872860146        2.71574920989477
H            1.78483178692131       -3.69952081082628        1.13789965301306
H           -0.56551130697787       -3.21144802983002        1.27684530115289
H           -1.71635061880118        1.01391045598950       -0.55437115906170
