105
 energy: -164.708950275527 gnorm: 0.000073738022 xtb: 6.7.1 (edcfbbe)
O          -10.34602120235909       -0.23397905393619       -0.74162670841802
P           -9.05602109851908        0.32222338020677       -0.31607697801208
C           -8.34002807276498        1.50789357440680       -1.50207383316173
C           -7.82064502559417        0.98908659891745       -2.68019162354926
C           -7.29716811407068        1.83725176742636       -3.63783692597127
C           -7.30047021068043        3.20631567203572       -3.42162648585922
C           -7.83566352890212        3.72511802782110       -2.25449570129340
C           -8.35817792342337        2.87738187843146       -1.29275445811601
C           -9.11782313825071        1.15631587314534        1.29831828706595
C          -10.33032826001860        1.14195404572250        1.97223290927010
C          -10.44000406425433        1.74736296092707        3.21171914775030
C           -9.33564908038337        2.36370804841125        3.77660013693724
C           -8.12299752104719        2.37619805234225        3.10379765018074
C           -8.00911228739868        1.77325679788879        1.86488120138044
C           -7.76987432462604       -0.95595327875646       -0.14828759449114
C           -8.15717676730555       -2.28351594481063       -0.03649082990720
C           -7.22395779261293       -3.30840390379702        0.07418701475696
C           -5.86761088371496       -3.04098943806462        0.06705306227904
C           -5.45367969364016       -1.72004871390219       -0.05036876215672
C           -6.40967679159789       -0.69101715621041       -0.14951367604119
O           -5.82768236182844        0.53144623064428       -0.25792729035235
C           -4.48287526757592        0.31580498689032       -0.24035413164788
C           -3.49183888336311        1.27593257035355       -0.32890541303538
C           -2.18139338764915        0.84071558566340       -0.28204599981022
C           -1.85069599911493       -0.51485689200485       -0.15647928652304
C           -0.43892984300812       -0.92499844211927       -0.11314707148756
C            0.00059579140588       -2.04512952301347       -0.81287182687281
C            1.32704746728200       -2.42955278362090       -0.77521261437734
C            2.25398229920195       -1.70406010513424       -0.03838746461275
C            3.69629831028225       -2.15517349005595        0.06402943578702
C            4.66678404298194       -0.99353891465708        0.10892277408910
C            4.45817766460177        0.12184098648539       -0.69553082154619
C            5.36554777551224        1.16199989981034       -0.71303617041975
C            6.50555843807109        1.10846124689104        0.08343323172387
N            7.42192749840562        2.16856086523079        0.07801618937593
C            8.78664308739390        2.05747809229596       -0.09854026280320
C            9.55586582481756        0.93135125627849       -0.35443231762272
C           10.91674538902891        1.10412552490765       -0.51861701132357
C           11.50534509191663        2.36450446358365       -0.44025405132796
C           10.74202335630875        3.49126808876635       -0.20965840303384
C            9.37154538587434        3.34346888075027       -0.04118358481345
C            8.29847500771899        4.26995797801585        0.18736466265278
C            8.24397929776572        5.64782064284057        0.35122695821325
C            7.01816604350351        6.23859965468631        0.58349408809668
C            5.85801513838885        5.47187955888852        0.66756696840509
C            5.88656045491874        4.09984176279940        0.50778632001960
C            7.11246007081978        3.50276315336236        0.25079348730415
C            6.72396177040165       -0.00818036004443        0.88356342290027
C            5.81694106558822       -1.05049214744689        0.88543509815416
C            4.12642690292448       -3.07275577907480       -1.06539422180691
C            4.24794423349745       -2.78624633038555       -2.40813461591942
C            4.67946677299935       -3.78880232906274       -3.26630675656320
C            4.98752023931646       -5.05217617911796       -2.78527016630292
C            4.87346889773698       -5.34397353315617       -1.43571269544255
C            4.44258406768936       -4.34764229912452       -0.57540081850154
C            4.23068198160568       -4.35718647174521        0.86292577234626
C            4.38430852498007       -5.36904785191845        1.79618995474349
C            4.10474716327437       -5.09445582233411        3.12506954154799
C            3.67719757268760       -3.83425461321251        3.51434707296080
C            3.52057344813098       -2.81671210790416        2.58277897873263
C            3.80407833755949       -3.08230142469251        1.26032010245785
C            1.81508736885421       -0.59448854014998        0.67584104684243
C            0.49104054007507       -0.20635388368233        0.63382732457697
C           -2.85704895334944       -1.46938612730849       -0.07333409026375
C           -4.17864069720786       -1.05342431316806       -0.11183771595502
H           -7.83278922666535       -0.08254453661556       -2.83359754065356
H           -6.88585841119227        1.43435481404026       -4.55209267672879
H           -6.88884004141143        3.87041300746584       -4.16772147110100
H           -7.84548538659956        4.79339927263340       -2.09257021513653
H           -8.77796382569836        3.27587334761794       -0.37932663832678
H          -11.17473050888326        0.65546910063810        1.50540023601183
H          -11.38387032281626        1.73968200485500        3.73690663395798
H           -9.41810723654441        2.83747763411899        4.74399854280783
H           -7.26472429275461        2.85945916458776        3.54815851337730
H           -7.07080855739735        1.78549180693056        1.33107373975539
H           -9.21537837895215       -2.50026737677917       -0.05181432891559
H           -7.56712925419055       -4.32838319075934        0.16038277689567
H           -5.14180460170631       -3.83581454195817        0.14555290233648
H           -3.74001209971860        2.31994788765066       -0.43507497864527
H           -1.38462971913208        1.56447370422613       -0.36493720531743
H           -0.70072313232598       -2.60992002708401       -1.40957837628686
H            1.64521716931355       -3.30118752643813       -1.32819837578174
H            3.57373166515904        0.17963610438994       -1.31310634031374
H            5.20300188988608        2.01552404351439       -1.35421155834241
H            9.10653922038379       -0.04713674832375       -0.43485880283800
H           11.53781121865315        0.24268306945841       -0.71582565820606
H           12.57319445654464        2.45708347590075       -0.57167171125534
H           11.19573738573322        4.46988970720211       -0.16479973490500
H            9.14531050734758        6.23997614928686        0.30151381499591
H            6.95351630447523        7.30892294723775        0.71150078971673
H            4.91535037411810        5.96074186803479        0.86562782821269
H            4.98453171303682        3.51236690701656        0.59156435265121
H            7.60033851436904       -0.05011333250080        1.51277544302774
H            6.00199530195311       -1.91322152578819        1.50809754861312
H            4.01026981529119       -1.80454490074832       -2.79000595342604
H            4.77647699621342       -3.58103630283159       -4.32175788668207
H            5.32158134404126       -5.81664614816081       -3.47147756739195
H            5.11626779467028       -6.32791592895083       -1.06302516397496
H            4.71448321349002       -6.35203827634505        1.49503193070603
H            4.21933011233125       -5.87090781145879        3.86729284436567
H            3.46268515073344       -3.64115495747866        4.55515005867322
H            3.18603395731551       -1.83787905766600        2.89271433867262
H            2.51882400637196       -0.02333296965674        1.26424893981718
H            0.16766989755753        0.65146979401473        1.20541170920059
H           -2.61524305879589       -2.51489344130317        0.04101593021546
