90
 energy: -134.007114253116 gnorm: 0.000073689491 xtb: 6.7.1 (edcfbbe)
C            6.33658542206605       -0.70121489012613       -1.80427284371307
C            6.66393954620964       -1.44336060684538       -0.49046808081698
C            7.94222931892641       -2.25281374665038       -0.71218768194004
C            6.80138281834158       -0.43359517872242        0.63351088074900
C            7.99969958117299       -0.06280371017273        1.21565819551528
C            8.03717036661041        0.85452583069782        2.25693418247740
C            6.85813225174062        1.39196824213718        2.75334635735805
C            5.64981590033438        1.04046210474394        2.18905163272206
C            5.61533230417898        0.15830263191258        1.10687549823449
N            4.40294619758185       -0.26152963937384        0.54211649727016
C            3.40852841003250        0.59751757065228        0.12136335614558
C            3.55689393574711        2.00504696602315        0.23916739163489
C            2.55799336978289        2.82786337769477       -0.19816607176308
C            1.41321262146311        2.31352337600013       -0.81736099691724
C            1.26575563989035        0.92012809894818       -1.01920580384242
C            2.26319516418510        0.10065690582139       -0.54607029301303
C            0.04823929620818        0.39640311024197       -1.76200922257192
C            0.12064150412040        0.86129083213365       -3.23218057964367
C            0.00378949577244       -1.13624640285374       -1.78275601765422
C           -1.19692316401792        0.98615262276605       -1.11828775761319
C           -2.28011723919059        0.22146630362439       -0.73812605417120
C           -3.42811155395004        0.79801021522860       -0.17789719346331
N           -4.54728706545581       -0.02309327346806        0.13656553533722
C           -5.35758149802106       -0.47031362258325       -0.88640857139501
C           -5.05836137341100       -0.11551334288812       -2.21146134231718
C           -5.83399959182075       -0.56456781070579       -3.25556929154930
C           -6.93208624511223       -1.37405520482265       -3.00186339371353
C           -7.24689380320945       -1.70531216790893       -1.69644035628370
C           -6.48486848011059       -1.26645977070857       -0.62197325905196
C           -6.89958063199148       -1.62865519490235        0.78762747440915
C           -8.30481115218494       -1.04940633959840        1.04655042718182
C           -6.92629200532984       -3.16419947745240        0.92287969837535
C           -5.94283094576196       -1.07138543773710        1.81903403910428
C           -6.16726762111348       -1.31207177859895        3.16773463004955
C           -5.30640419280047       -0.85026958755056        4.14709614457600
C           -4.17235243454850       -0.13899641045598        3.78108970859900
C           -3.92621952566899        0.12098787848829        2.45246283810112
C           -4.81134787371848       -0.32112510291760        1.45638506357007
C           -3.48570201869047        2.18273265734471        0.05658918543455
C           -2.40870932209046        2.95395936699914       -0.29110509630359
C           -1.28634869719151        2.38123182409072       -0.89956025846634
S            0.10020648337919        3.41525534431723       -1.19569909511359
O            0.15634479776032        3.88659396675513       -2.58292417270243
O            0.10411829117387        4.50469548222218       -0.22665950117932
C            4.34534882216639       -1.65449717673067        0.39650764433535
C            3.24148117526245       -2.38688511394441        0.83987693247935
C            3.23585208578822       -3.76114614753275        0.72614289546726
C            4.33431625144854       -4.41569758356781        0.18690492477656
C            5.45253448689624       -3.69265790847928       -0.20597108544165
C            5.48391910695337       -2.31388849133579       -0.10173067535666
H            5.43862731475733       -0.09583021613273       -1.71433003197453
H            7.16314983518593       -0.04692809910374       -2.07306214583626
H            6.18577759818082       -1.42117733491361       -2.60587053515998
H            7.80062004396619       -2.95723170280400       -1.52766508958479
H            8.21987546790896       -2.79876920058785        0.18647225254129
H            8.75792610328808       -1.59191597563561       -0.99350537384941
H            8.92717890952790       -0.48491665414281        0.86515992016960
H            8.98481758467615        1.13301489771516        2.69203605936177
H            6.88070178998420        2.07539216310595        3.58897611819233
H            4.72450810995704        1.41470215693526        2.60028952036154
H            4.46315197205164        2.42958590737768        0.63638823938804
H            2.62917657685695        3.90055598142352       -0.10013140640708
H            2.20583831955876       -0.95848037869750       -0.71940533792524
H            1.01952131271635        0.46350303329522       -3.69934755926276
H            0.14549006789642        1.94334454792424       -3.30736566552400
H           -0.74807968687489        0.49793291497305       -3.77765099576250
H           -0.05157088511849       -1.54731607428527       -0.77811925634690
H            0.88899130929704       -1.52413676607913       -2.27982429472952
H           -0.85879837865360       -1.46935538910560       -2.35389608068032
H           -2.28156662579029       -0.84821012454115       -0.86755255693537
H           -4.21318334107950        0.52482231632101       -2.40679316384764
H           -5.58516691257822       -0.28090783890797       -4.26698799827846
H           -7.54459783301131       -1.73383097684693       -3.81431612957456
H           -8.11500926990541       -2.31980091920271       -1.51640785134674
H           -9.02075184493198       -1.44220195676008        0.33080512466822
H           -8.64708443662165       -1.30120695120607        2.04581540818706
H           -8.28316828789574        0.03476534877531        0.95228681512537
H           -5.93310635071595       -3.57020658825517        0.74105488939500
H           -7.24085568044889       -3.45707173093647        1.91994594055607
H           -7.61430078203094       -3.60203633348033        0.20612711660798
H           -7.03536491697603       -1.87692898416555        3.46944814052440
H           -5.51223899563901       -1.05212766569054        5.18709864559183
H           -3.48123193233115        0.21247602300403        4.53222778288776
H           -3.04349195967052        0.66996215904360        2.16497366712199
H           -4.36941059080420        2.61825090989117        0.49750090514149
H           -2.39084717339630        4.01939672210610       -0.11980084773959
H            2.41585033786278       -1.87012370531132        1.30516520884102
H            2.38127004557101       -4.32447903147775        1.06931325682584
H            4.33099042317621       -5.49064384543698        0.09082197938276
H            6.30256646092002       -4.22665479357730       -0.59770556209319
