  90
       -134.05681635
 C          6.2927425690       -0.3398238485       -1.8391951281
 C          6.7405967737       -1.2601005331       -0.6854964767
 C          8.0523691711       -1.9305237978       -1.0909127151
 C          6.8773230004       -0.4286347840        0.5779477371
 C          8.0832095220       -0.0723469641        1.1612365328
 C          8.1146499810        0.6897410197        2.3172071613
 C          6.9359396762        1.0867017239        2.9234762854
 C          5.7228983335        0.7307156137        2.3648027196
 C          5.6928647840       -0.0018703520        1.1847280895
 N          4.4687419354       -0.4256600310        0.6272107403
 C          3.4705087962        0.4499518058        0.2638657493
 C          3.6198928342        1.8300853709        0.4583039320
 C          2.6125148242        2.6863462469        0.0767185590
 C          1.4642687355        2.2036392746       -0.5221562798
 C          1.2943354683        0.8454606534       -0.7697416766
 C          2.3114907082       -0.0084908851       -0.3784865249
 C          0.0526476110        0.3470662056       -1.4925254111
 C          0.1317327001        0.8211871190       -2.9576836867
 C         -0.0244949831       -1.1827759252       -1.5154279997
 C         -1.1979394617        0.9582680214       -0.8830391031
 C         -2.3218171469        0.2054464453       -0.5660657302
 C         -3.4930197505        0.8033623692       -0.1098845943
 N         -4.6220806976       -0.0004893107        0.1656337203
 C         -5.2645460784       -0.6492277271       -0.8810427462
 C         -4.7869199124       -0.5110799418       -2.1884274761
 C         -5.3924731464       -1.1633736727       -3.2417327508
 C         -6.4993411687       -1.9606810612       -3.0146416994
 C         -6.9995410021       -2.0653975810       -1.7306177374
 C         -6.4103284909       -1.4185231696       -0.6523835292
 C         -7.0498481850       -1.5330043049        0.7175884041
 C         -8.4684865968       -0.9397936303        0.6407923076
 C         -7.1127563200       -3.0178220985        1.1195462011
 C         -6.2620516677       -0.7825847294        1.7730387400
 C         -6.6976968975       -0.8049653393        3.0913728241
 C         -6.0003986088       -0.1776181729        4.1063165900
 C         -4.8163626306        0.4722588851        3.8084592943
 C         -4.3646492044        0.5146322508        2.5063040934
 C         -5.0915936143       -0.0803163894        1.4703535257
 C         -3.5547367358        2.1819703092        0.0652427505
 C         -2.4295801952        2.9373793672       -0.1985000707
 C         -1.2839707579        2.3306232897       -0.6749049026
 S          0.1646014850        3.3620012274       -0.8944530760
 O          0.2515497866        3.8327083510       -2.2621593587
 O          0.1465928420        4.3912386163        0.1167365010
 C          4.4949048805       -1.7838745944        0.2518822215
 C          3.4683569585       -2.6508489383        0.6070679565
 C          3.5373897316       -3.9856456766        0.2532057714
 C          4.6448812753       -4.4599803921       -0.4262609199
 C          5.6926177891       -3.6072101283       -0.7317738223
 C          5.6365517416       -2.2628211670       -0.3995130353
 H          5.3642762381        0.1719724082       -1.6067855314
 H          7.0579826012        0.4093480524       -2.0309882474
 H          6.1453728646       -0.9265839506       -2.7437165846
 H          7.9152019990       -2.5013911441       -2.0059657089
 H          8.4107399935       -2.5949857837       -0.3078259644
 H          8.8104993245       -1.1776504095       -1.2916783134
 H          9.0157272026       -0.3836629071        0.7191164472
 H          9.0643653816        0.9633924051        2.7506317135
 H          6.9581094029        1.6610366442        3.8369765749
 H          4.7953216384        1.0047780465        2.8450931856
 H          4.5251851657        2.2278960288        0.8837865548
 H          2.6965089344        3.7493733243        0.2350869624
 H          2.2344905462       -1.0575513227       -0.5897278947
 H          1.0149717825        0.3988913405       -3.4319660760
 H          0.1878007118        1.9016338489       -3.0161316232
 H         -0.7487791641        0.4853135001       -3.5015600332
 H         -0.0773247637       -1.5950847208       -0.5110180040
 H          0.8450779512       -1.5906336835       -2.0230047907
 H         -0.8982306588       -1.4992446897       -2.0783996092
 H         -2.3250969859       -0.8654953977       -0.6713755077
 H         -3.9403975342        0.1268632319       -2.3838604696
 H         -4.9995908870       -1.0413605494       -4.2400985138
 H         -6.9788766868       -2.4813901325       -3.8288520741
 H         -7.8812116356       -2.6666107412       -1.5696301690
 H         -9.0707437586       -1.4677305726       -0.0932913648
 H         -8.9686398052       -1.0046190085        1.6030408615
 H         -8.4156609624        0.1081192459        0.3511209350
 H         -6.1061896872       -3.4281391007        1.1777829931
 H         -7.5879471778       -3.1381681475        2.0888410664
 H         -7.6768729900       -3.5947349635        0.3923980732
 H         -7.6088297003       -1.3278055963        3.3391409905
 H         -6.3708240206       -0.2086925425        5.1190989121
 H         -4.2389705007        0.9462907400        4.5877809618
 H         -3.4330369029        1.0121114243        2.2877764813
 H         -4.4656431972        2.6415403987        0.4159703098
 H         -2.4155590981        4.0044393964       -0.0456384769
 H          2.6322871081       -2.2817147163        1.1819863206
 H          2.7341370767       -4.6544693835        0.5227028084
 H          4.7045703927       -5.5010376532       -0.7044371605
 H          6.5563588218       -4.0073302767       -1.2372475513
