  61
        -75.89970296
 C         -5.6358346353       -1.7763463699        0.0927480637
 C         -4.2032524591       -1.3412209444        0.0325162468
 C         -3.2749169862       -1.8455488944        0.9325706105
 C         -1.9471975995       -1.4524987666        0.9030069265
 C         -0.9965677190       -2.0558489918        1.8967898429
 C         -1.5033468515       -0.5063587401       -0.0365279423
 B         -0.0116507384       -0.0122611756       -0.0455934216
 C          0.3052601523        1.5275810310       -0.0300454418
 C          1.2421599865        2.0826442866       -0.9173473542
 C          1.9250297199        1.2233366197       -1.9413044762
 C          1.5380499032        3.4354825980       -0.8777261922
 C          0.9344896755        4.2827820300        0.0397555202
 C          1.2560415148        5.7459545931        0.0671566671
 C          0.0047298038        3.7393604151        0.9133520012
 C         -0.3193534790        2.3919522905        0.8838007207
 C         -1.3485920650        1.8826898942        1.8517534877
 C          1.1709816008       -1.0459448328       -0.0218275514
 C          1.2290360424       -2.1191805728       -0.9258693876
 C          0.1777471424       -2.2931449429       -1.9833780367
 C          2.2825767183       -3.0197411260       -0.8868627952
 C          3.3009096008       -2.9054105949        0.0465562179
 C          4.4178710756       -3.9025697554        0.1018035050
 C          3.2441985571       -1.8493720565        0.9443080590
 C          2.2111745578       -0.9267795738        0.9155440524
 C          2.2314158387        0.1985206631        1.9101920492
 C         -2.4438630978       -0.0031645527       -0.9500156528
 C         -2.0274679205        0.9686200698       -2.0153729936
 C         -3.7639463072       -0.4252503102       -0.9101843689
 H         -6.1105002501       -1.3831738491        0.9920904128
 H         -6.1886077335       -1.4179497016       -0.7721482651
 H         -5.7049824398       -2.8624720114        0.1287705515
 H         -3.5985071642       -2.5668727094        1.6704713137
 H         -1.5342920950       -2.6579292328        2.6259690039
 H         -0.4379650087       -1.2877671704        2.4242117553
 H         -0.2760991526       -2.6893646828        1.3850040800
 H          2.5043269000        1.8321420939       -2.6319445373
 H          2.5920578196        0.5164307208       -1.4546963604
 H          1.1953148155        0.6518281253       -2.5076949006
 H          2.2594272715        3.8409035923       -1.5740288553
 H          0.5723279048        6.2902684506       -0.5857111477
 H          1.1508473930        6.1472785525        1.0726942685
 H          2.2701192839        5.9267162455       -0.2823724316
 H         -0.4805617602        4.3845766006        1.6328247684
 H         -2.2666824105        1.6376344464        1.3224840945
 H         -1.0097622932        0.9802307533        2.3507385505
 H         -1.5735995008        2.6352920346        2.6043976897
 H         -0.8150593970       -2.2139374170       -1.5527775976
 H          0.2796514550       -3.2591818583       -2.4726703233
 H          0.2748452210       -1.5187923891       -2.7437960257
 H          2.3090213716       -3.8337686945       -1.5984016543
 H          5.3433845465       -3.4293266959        0.4228932640
 H          4.1785717318       -4.6912330399        0.8164050252
 H          4.5747937365       -4.3645623959       -0.8701909696
 H          4.0294999211       -1.7424129802        1.6801725524
 H          2.9725800737        0.0127804501        2.6846390148
 H          2.4803786443        1.1321104120        1.4106628397
 H          1.2612261788        0.3286088948        2.3788708736
 H         -1.3173473542        0.5016056386       -2.6959364055
 H         -1.5417330638        1.8328540074       -1.5723498403
 H         -2.8870866624        1.3006587350       -2.5931337725
 H         -4.4680019454       -0.0273004425       -1.6281508934
  61
        -75.89966537
 C         -5.6452093630       -1.7257649906        0.0197252477
 C         -4.2057690029       -1.3101295862        0.0071177403
 C         -3.3099260009       -1.8200295969        0.9340040018
 C         -1.9765820425       -1.4392873125        0.9437155959
 C         -1.0764416990       -2.0227646910        1.9939202497
 C         -1.4951291071       -0.5026826111        0.0146531572
 B          0.0046280540       -0.0289358635        0.0126963717
 C          0.3234456212        1.5111670922        0.0050812153
 C          1.2500028517        2.0596063939       -0.8975529073
 C          1.9854741974        1.1867882013       -1.8726344173
 C          1.4960234243        3.4231393132       -0.9146010183
 C          0.8555884626        4.2884144265       -0.0398688871
 C          1.1517626011        5.7570491763       -0.0560727876
 C         -0.0477433369        3.7486827160        0.8630410546
 C         -0.3212992207        2.3903584206        0.8907012714
 C         -1.3109032366        1.8782171348        1.8965191287
 C          1.1800507043       -1.0724753016        0.0052240204
 C          1.2436775636       -2.1087068943       -0.9394058531
 C          0.1914893042       -2.2622981961       -1.9994269705
 C          2.3095111641       -2.9977918255       -0.9409247221
 C          3.3302876925       -2.9104376678       -0.0095007614
 C          4.4808203912       -3.8702557243       -0.0160410292
 C          3.2624674621       -1.8963472541        0.9368475147
 C          2.2196894044       -0.9865050136        0.9494206957
 C          2.1953183724        0.0719753485        2.0134718519
 C         -2.4072786383        0.0142142310       -0.9219667768
 C         -1.9578875083        0.9994492373       -1.9618655808
 C         -3.7308678071       -0.3940653285       -0.9200263974
 H         -6.1011022597       -1.5774615837       -0.9564111847
 H         -5.7426370115       -2.7723070678        0.3008715107
 H         -6.1993535919       -1.1305361918        0.7466196166
 H         -3.6593985260       -2.5381267653        1.6630455485
 H         -0.1183577714       -2.2987445727        1.5670407886
 H         -1.5335005746       -2.8998025432        2.4465791727
 H         -0.8959439089       -1.2947311767        2.7851829713
 H          1.2968678930        0.5443497287       -2.4133332420
 H          2.5371056906        1.7910996079       -2.5898858359
 H          2.6874750451        0.5456788495       -1.3447758364
 H          2.2060907804        3.8244016901       -1.6246867470
 H          0.3208600780        6.3252522608        0.3557434990
 H          2.0366192902        5.9659856179        0.5466460922
 H          1.3484798242        6.1008948398       -1.0693531516
 H         -0.5539666531        4.4048298586        1.5578375184
 H         -1.5519956854        2.6481501338        2.6263940505
 H         -2.2279750163        1.5739523151        1.3976399630
 H         -0.9161634901        1.0119032737        2.4175233063
 H         -0.7953558524       -2.0726330311       -1.5923651250
 H          0.2184817425       -3.2639655364       -2.4226051744
 H          0.3644994986       -1.5545801326       -2.8109948281
 H          2.3394662914       -3.7815582195       -1.6852880902
 H          5.3953035724       -3.3593317062       -0.3181159687
 H          4.6430787934       -4.2803638219        0.9795088217
 H          4.3002361204       -4.6892640780       -0.7078568484
 H          4.0456556364       -1.8171254064        1.6783660655
 H          2.1608817105        1.0599987788        1.5637521453
 H          1.3114179074       -0.0383161402        2.6383718862
 H          3.0761073892        0.0014856593        2.6477960965
 H         -1.7123361459        1.9504624145       -1.4958271265
 H         -2.7401538212        1.1647267113       -2.6996699463
 H         -1.0672463225        0.6421867596       -2.4704052036
 H         -4.4104383895        0.0104136072       -1.6575593986
  61
        -75.89961833
 C         -5.5642364217       -1.9440152218       -0.0765720310
 C         -4.1590918612       -1.4248085409       -0.0480633080
 C         -3.2438221250       -1.9076680826        0.8767510305
 C         -1.9340211248       -1.4583489550        0.9022896670
 C         -1.0002188187       -2.0112423840        1.9395312705
 C         -1.4939100643       -0.4822340397       -0.0083593806
 B         -0.0027100327        0.0191930667       -0.0001450335
 C          0.3222396372        1.5558772354        0.0022416491
 C          1.2147697619        2.1052032878       -0.9346231078
 C          1.8698472837        1.2399647927       -1.9722360293
 C          1.4913783712        3.4629114108       -0.9361127955
 C          0.9197181371        4.3217749638       -0.0094408743
 C          1.2156716629        5.7904304873       -0.0284065245
 C          0.0476187444        3.7822879165        0.9232804870
 C         -0.2606893192        2.4305321344        0.9345769233
 C         -1.1914154646        1.9254427787        1.9992962098
 C          1.1645345961       -1.0345158815        0.0077496485
 C          1.1833478111       -2.1092108650       -0.8978811515
 C          0.1007336767       -2.2637350827       -1.9264441684
 C          2.2110177558       -3.0367517164       -0.8694547063
 C          3.2421156493       -2.9510367329        0.0562732359
 C          4.3376806266       -3.9730716888        0.0710496326
 C          3.2259986334       -1.8934393541        0.9511345137
 C          2.2178531979       -0.9413808806        0.9308249856
 C          2.2717121041        0.1831198493        1.9237426926
 C         -2.4269014322        0.0156416905       -0.9318917833
 C         -2.0334805143        1.0651264323       -1.9303534853
 C         -3.7287913262       -0.4610221148       -0.9463812808
 H         -5.5920984028       -2.9215438907       -0.5593358540
 H         -5.9527124489       -2.0603008263        0.9334232168
 H         -6.2158550950       -1.2723898802       -0.6303547602
 H         -3.5627484960       -2.6528876896        1.5926020395
 H         -0.2282996126       -2.6136474103        1.4676177357
 H         -1.5397069160       -2.6311174844        2.6521618932
 H         -0.5071485044       -1.2076193145        2.4788256759
 H          2.5632842351        1.8212013400       -2.5758564234
 H          2.4087850122        0.4240956726       -1.5002962872
 H          1.1251598083        0.8035942181       -2.6350256906
 H          2.1736006555        3.8631104666       -1.6736761305
 H          1.2015558701        6.2012621545        0.9788142050
 H          2.1872260354        5.9849951688       -0.4769138683
 H          0.4609651411        6.3151802760       -0.6157614940
 H         -0.4060687406        4.4336797314        1.6576607522
 H         -0.6242979712        1.4666283822        2.8101570544
 H         -1.7699268256        2.7440533766        2.4219522470
 H         -1.8678802692        1.1788992672        1.5981178149
 H         -0.0378938713       -1.3408503610       -2.4820660012
 H         -0.8437629238       -2.5019609704       -1.4441777123
 H          0.3455253537       -3.0589669851       -2.6271896764
 H          2.2112866645       -3.8517202603       -1.5803996307
 H          5.0126081142       -3.8080634026        0.9072300839
 H          3.9216749400       -4.9766662143        0.1496145696
 H          4.9129821022       -3.9238257875       -0.8533214318
 H          4.0206138758       -1.8057469246        1.6793960694
 H          2.4557838430        1.1246055329        1.4114714979
 H          1.3286092338        0.2766533619        2.4538137392
 H          3.0658524427        0.0194163896        2.6491580421
 H         -1.1782257021        0.7400496922       -2.5166441187
 H         -1.7518940187        1.9814229286       -1.4185727002
 H         -2.8564059971        1.2799295529       -2.6083850984
 H         -4.4274588235       -0.0684980136       -1.6725284809
  61
        -75.89957307
 C         -5.6414841714       -1.8367434020       -0.0406525678
 C         -4.2193780351       -1.3658210007       -0.0140025922
 C         -3.3248337988       -1.8370861817        0.9343186108
 C         -1.9998788742       -1.4286933241        0.9490924800
 C         -1.0944949259       -1.9554228527        2.0236651565
 C         -1.5264299346       -0.5048946896        0.0029311331
 B         -0.0305108707       -0.0181422714        0.0081039742
 C          0.3043562592        1.5186888053        0.0066129290
 C          1.2300311478        2.0485188160       -0.9077069542
 C          1.8991561732        1.1671381475       -1.9222014180
 C          1.5358657350        3.4004969701       -0.9039313055
 C          0.9560706956        4.2722494539        0.0040578886
 C          1.3019329230        5.7300145239        0.0217878839
 C          0.0419613473        3.7533049141        0.9094490101
 C         -0.2927082247        2.4086139169        0.9163162234
 C         -1.2740099169        1.9253711823        1.9443919716
 C          1.1516549524       -1.0561139719        0.0064851445
 C          1.2142552441       -2.1138187921       -0.9161302842
 C          0.1495047582       -2.3071278793       -1.9569533356
 C          2.2918097123       -2.9866298873       -0.9153932705
 C          3.3300430197       -2.8625420261       -0.0049978896
 C          4.4923591382       -3.8075568436       -0.0350792554
 C          3.2628466087       -1.8306309169        0.9189603689
 C          2.2045234494       -0.9368113730        0.9302955552
 C          2.1934324649        0.1500192359        1.9656007101
 C         -2.4382894349       -0.0236171769       -0.9530333710
 C         -1.9927744464        0.9447285172       -2.0093217097
 C         -3.7529795990       -0.4592049987       -0.9553313680
 H         -5.9568851162       -2.1765784575        0.9430599277
 H         -6.3060152415       -1.0410346313       -0.3706916649
 H         -5.7451520940       -2.6705612592       -0.7362507300
 H         -3.6683701190       -2.5424631080        1.6783359890
 H         -1.5676559609       -2.7753077743        2.5588558852
 H         -0.8656792457       -1.1691603041        2.7417614000
 H         -0.1581760846       -2.2999348916        1.5971503994
 H          2.4236380412        1.7644111615       -2.6648568694
 H          2.6168857554        0.5130332896       -1.4334174495
 H          1.1716189648        0.5396888308       -2.4265785872
 H          2.2465404959        3.7832709366       -1.6235857501
 H          1.9435204883        5.9882835595       -0.8170265911
 H          0.3993311246        6.3374836806       -0.0268768182
 H          1.8224692537        5.9824390279        0.9456457369
 H         -0.4227413015        4.4183688694        1.6243867144
 H         -0.7618509693        1.3513020213        2.7160389728
 H         -1.7705436335        2.7652946132        2.4252141617
 H         -2.0203014019        1.2826431299        1.4901087294
 H         -0.8348958936       -2.1275200202       -1.5402337760
 H          0.1890351555       -3.3162896648       -2.3609395377
 H          0.2994483735       -1.6124257588       -2.7841055485
 H          2.3233046511       -3.7875014212       -1.6412162508
 H          5.1718669861       -3.5379493961       -0.8444718602
 H          5.0465712391       -3.7730346344        0.8997614117
 H          4.1554472314       -4.8276495231       -0.2091123782
 H          4.0557735315       -1.7207562538        1.6460139730
 H          1.2368058582        0.1800772646        2.4777994276
 H          2.9803181351       -0.0087907213        2.6997578369
 H          2.3470914303        1.1174500478        1.4943147352
 H         -1.5854385334        1.8412606543       -1.5516049137
 H         -2.8233557013        1.2214761780       -2.6544565652
 H         -1.2116992780        0.5025772573       -2.6236228771
 H         -4.4339448568       -0.0841219760       -1.7069007433
  61
        -75.89956903
 C         -5.5708539398       -1.9062025487        0.0023968308
 C         -4.1588734607       -1.4049858320       -0.0121878986
 C         -3.2390615632       -1.8623157624        0.9222758375
 C         -1.9267704271       -1.4231941552        0.9217100028
 C         -0.9875025220       -1.9648861744        1.9597668191
 C         -1.4852711615       -0.4775771856       -0.0213801281
 B          0.0052262768        0.0224365450       -0.0022536066
 C          0.3261013424        1.5639400082       -0.0065259565
 C          1.2396651367        2.1147774558       -0.9214602545
 C          1.9116299564        1.2456984137       -1.9437626419
 C          1.5106544986        3.4735605507       -0.9155910808
 C          0.9078885899        4.3303891555       -0.0065963057
 C          1.1995034888        5.7998577025       -0.0199821427
 C          0.0097910514        3.7893347208        0.9013829425
 C         -0.2895720355        2.4364399030        0.9072402882
 C         -1.2546826147        1.9121232747        1.9299742640
 C          1.1715118243       -1.0318843967        0.0236520008
 C          1.1969511167       -2.0813372523       -0.9130808464
 C          0.1206801840       -2.2050338553       -1.9521558846
 C          2.2207899693       -3.0120114180       -0.9058240116
 C          3.2455522098       -2.9578496943        0.0298283849
 C          4.3486798847       -3.9716412144        0.0131542096
 C          3.2203022445       -1.9317848991        0.9585562130
 C          2.2132493899       -0.9755905623        0.9620683158
 C          2.2522593020        0.0765725822        2.0327195447
 C         -2.4198362400       -0.0116247581       -0.9590684951
 C         -2.0336298662        0.9651997913       -2.0322104793
 C         -3.7261604994       -0.4817772045       -0.9485511632
 H         -6.0204940251       -1.7500087111        0.9821458567
 H         -6.1734553064       -1.3946906430       -0.7440132219
 H         -5.5942770117       -2.9756226814       -0.2065947367
 H         -3.5584980650       -2.5805465777        1.6649952835
 H         -0.4449175979       -1.1604125302        2.4455082758
 H         -0.2561116263       -2.6215632150        1.4944971531
 H         -1.5309348642       -2.5294134570        2.7144571888
 H          1.1715213036        0.7524051864       -2.5693867677
 H          2.5655463621        1.8356987683       -2.5815803634
 H          2.4978474539        0.4736417349       -1.4542586159
 H          2.2120173125        3.8762997323       -1.6332771542
 H          0.4843875176        6.3158525107       -0.6620731845
 H          1.1170059668        6.2204817354        0.9797715786
 H          2.1982134205        5.9935352236       -0.4047813250
 H         -0.4690252991        4.4399285203        1.6201138969
 H         -0.7810346717        1.1526278776        2.5473170764
 H         -1.6056087525        2.7138573164        2.5754743675
 H         -2.1089359100        1.4539063246        1.4402296132
 H         -0.8157315561       -2.5016505270       -1.4859684487
 H          0.3890310063       -2.9495470691       -2.6984998334
 H         -0.0452653122       -1.2543800640       -2.4483089655
 H          2.2243049105       -3.8034895326       -1.6428172518
 H          5.0384092115       -3.7612448864       -0.8049163802
 H          4.9087511847       -3.9528432090        0.9448901776
 H          3.9485827982       -4.9725719365       -0.1383363220
 H          4.0059496541       -1.8690555560        1.6989810245
 H          1.8189189533        1.0056125555        1.6818844118
 H          1.6898821961       -0.2572086935        2.9065319335
 H          3.2766840027        0.2575664834        2.3520315245
 H         -1.3044185330        1.6773409240       -1.6641018068
 H         -2.9086247972        1.5018331566       -2.3928053124
 H         -1.5975712849        0.4369882357       -2.8813933220
 H         -4.4239039333       -0.1116503123       -1.6871923189
  61
        -75.89949919
 C         -5.6516745585       -1.7458186578        0.0245365827
 C         -4.2180409052       -1.3100870779        0.0163107686
 C         -3.3228247377       -1.8034507131        0.9516624271
 C         -1.9873007814       -1.4269498709        0.9530419399
 C         -1.1057483398       -1.9921135133        2.0296543127
 C         -1.5028313189       -0.5098917377        0.0070075942
 B         -0.0056079418       -0.0283616794        0.0025631392
 C          0.3151565742        1.5119587298       -0.0034684463
 C          1.2571303206        2.0568924144       -0.8925794507
 C          1.9842040267        1.1844680634       -1.8739824107
 C          1.5284972678        3.4156335793       -0.8878275755
 C          0.8972359417        4.2797553328       -0.0054205889
 C          1.1918133782        5.7486421567       -0.0235244921
 C         -0.0279837045        3.7446811427        0.8781101439
 C         -0.3263618696        2.3912636832        0.8851267106
 C         -1.3319776064        1.8821038933        1.8762652627
 C          1.1766417770       -1.0656062096        0.0016850303
 C          1.2406925429       -2.1091921519       -0.9365588139
 C          0.1777310381       -2.2775765607       -1.9830723656
 C          2.3138174854       -2.9863991716       -0.9422129747
 C          3.3449452805       -2.8820860264       -0.0208137714
 C          4.4845659137       -3.8546928069       -0.0365192393
 C          3.2745889991       -1.8666360260        0.9206485171
 C          2.2214982846       -0.9662229245        0.9376360150
 C          2.1943104480        0.0927515526        2.0014246414
 C         -2.4149198430       -0.0127579847       -0.9422462794
 C         -1.9619378912        0.9443888819       -2.0060265437
 C         -3.7390526538       -0.4182988494       -0.9324304248
 H         -5.7369588770       -2.7626588962       -0.3599247189
 H         -6.0491921658       -1.7390690124        1.0378866457
 H         -6.2602084645       -1.0934466335       -0.5970313634
 H         -3.6728319124       -2.5028210593        1.6984748383
 H         -1.4194001150       -3.0027328839        2.2842832118
 H         -1.1848583018       -1.3861042224        2.9338553480
 H         -0.0696838343       -2.0107630628        1.7151274533
 H          2.6857908530        0.5388117749       -1.3518297752
 H          1.2892546858        0.5482154024       -2.4126779036
 H          2.5355519360        1.7886999548       -2.5911339452
 H          2.2533855675        3.8132281194       -1.5848854206
 H          0.5521653152        6.2484172698       -0.7522470141
 H          1.0045883898        6.1943964228        0.9507086704
 H          2.2266576215        5.9322459431       -0.3044747726
 H         -0.5293061133        4.4005556250        1.5765647500
 H         -2.2195939349        1.5262416242        1.3600956953
 H         -0.9238652711        1.0501345227        2.4425960748
 H         -1.6229241096        2.6694119761        2.5683022460
 H         -0.8089215227       -2.1613876380       -1.5481599480
 H          0.2510294609       -3.2573542110       -2.4494576911
 H          0.2917536699       -1.5264452343       -2.7648273700
 H          2.3483266872       -3.7750313808       -1.6812175910
 H          4.1582838132       -4.8206207635        0.3501298135
 H          4.8448498987       -4.0077206383       -1.0522807473
 H          5.3074316409       -3.5002297780        0.5794956254
 H          4.0620835636       -1.7728948701        1.6558591259
 H          3.0797915944        0.0308066513        2.6298669715
 H          2.1478614537        1.0799648534        1.5522337250
 H          1.3154904452       -0.0250414673        2.6323338268
 H         -1.5593907705        1.8467544472       -1.5556837633
 H         -2.7884167467        1.2137520154       -2.6597589600
 H         -1.1758018188        0.4974826755       -2.6100537774
 H         -4.4178721528       -0.0256270248       -1.6770797178
  61
        -75.89923829
 C         -5.6183117357       -1.7491081507        0.0882555001
 C         -4.1798718462       -1.3321779769        0.0400743213
 C         -3.2576175321       -1.8324498146        0.9461274097
 C         -1.9284348362       -1.4390276070        0.9207029049
 C         -0.9812108578       -2.0357795671        1.9218563334
 C         -1.4814734413       -0.4994947438       -0.0212593344
 B          0.0112646439       -0.0086882556       -0.0292160661
 C          0.3174317722        1.5329733894       -0.0213991328
 C          1.2656149416        2.0933163812       -0.8940270600
 C          2.0005246749        1.2352233430       -1.8821374891
 C          1.5199879092        3.4547198399       -0.8802388530
 C          0.8657164173        4.3076976051       -0.0031281455
 C          1.1496714957        5.7787748874       -0.0117132149
 C         -0.0657808761        3.7583359036        0.8634723717
 C         -0.3493131591        2.4012179109        0.8600167914
 C         -1.3770317821        1.8888974761        1.8291492814
 C          1.1832366646       -1.0556025203       -0.0043923892
 C          1.2331690670       -2.1077516483       -0.9376569505
 C          0.1812725470       -2.2407148613       -2.0002024406
 C          2.2709843333       -3.0232246037       -0.9151770375
 C          3.2854774806       -2.9505541268        0.0303287099
 C          4.4049304821       -3.9465786435        0.0295359344
 C          3.2343755700       -1.9230526998        0.9561717247
 C          2.2113438205       -0.9840251267        0.9460909514
 C          2.2526798268        0.0873196800        1.9999890473
 C         -2.4175759194        0.0044017043       -0.9392546030
 C         -1.9979662966        0.9920234617       -1.9891133919
 C         -3.7364687503       -0.4166593683       -0.9039927067
 H         -6.0403102858       -1.8001484792       -0.9132434748
 H         -5.7257641929       -2.7193081868        0.5676962150
 H         -6.1980407222       -1.0228774641        0.6596031190
 H         -3.5825714717       -2.5503643853        1.6867100362
 H         -0.3063643307       -2.7296038456        1.4251005576
 H         -1.5268834565       -2.5760438859        2.6925336982
 H         -0.3720982490       -1.2707568161        2.3933368732
 H          2.6616363101        1.8387272936       -2.4998939686
 H          2.5898976779        0.4839818759       -1.3648139490
 H          1.3015419117        0.7150283735       -2.5326226507
 H          2.2489678103        3.8654504653       -1.5654093803
 H          2.2190745727        5.9638556080       -0.0939547359
 H          0.6632580123        6.2487468731       -0.8672096722
 H          0.7781204675        6.2522306823        0.8938589084
 H         -0.5863462945        4.4044962439        1.5570847720
 H         -1.0362274706        0.9891975214        2.3318801490
 H         -1.6052965057        2.6435562429        2.5790600341
 H         -2.2948519776        1.6400383295        1.3013800145
 H          0.2405945762       -1.4087893872       -2.7003595705
 H         -0.8099308971       -2.2313399307       -1.5577142133
 H          0.3134486973       -3.1641171646       -2.5596768409
 H          2.2920950998       -3.8193244095       -1.6468899188
 H          5.1346090908       -3.6877900352       -0.7386684968
 H          4.9138968129       -3.9605895242        0.9903065793
 H          4.0322040403       -4.9456130719       -0.1880469987
 H          4.0087453555       -1.8455913229        1.7072192752
 H          3.0619859402        0.7855404504        1.7845754829
 H          1.3281370379        0.6477669005        2.0401054545
 H          2.4486966593       -0.3522801138        2.9775566496
 H         -1.7129860692        1.9333835284       -1.5263467394
 H         -2.8081689398        1.1778655060       -2.6906950771
 H         -1.1374700748        0.6232034668       -2.5404812327
 H         -4.4399698371       -0.0198528797       -1.6232005264
