  61
        -75.89970296
 C         -5.6358346353       -1.7763463699        0.0927480637
 C         -4.2032524591       -1.3412209444        0.0325162468
 C         -3.2749169862       -1.8455488944        0.9325706105
 C         -1.9471975995       -1.4524987666        0.9030069265
 C         -0.9965677190       -2.0558489918        1.8967898429
 C         -1.5033468515       -0.5063587401       -0.0365279423
 B         -0.0116507384       -0.0122611756       -0.0455934216
 C          0.3052601523        1.5275810310       -0.0300454418
 C          1.2421599865        2.0826442866       -0.9173473542
 C          1.9250297199        1.2233366197       -1.9413044762
 C          1.5380499032        3.4354825980       -0.8777261922
 C          0.9344896755        4.2827820300        0.0397555202
 C          1.2560415148        5.7459545931        0.0671566671
 C          0.0047298038        3.7393604151        0.9133520012
 C         -0.3193534790        2.3919522905        0.8838007207
 C         -1.3485920650        1.8826898942        1.8517534877
 C          1.1709816008       -1.0459448328       -0.0218275514
 C          1.2290360424       -2.1191805728       -0.9258693876
 C          0.1777471424       -2.2931449429       -1.9833780367
 C          2.2825767183       -3.0197411260       -0.8868627952
 C          3.3009096008       -2.9054105949        0.0465562179
 C          4.4178710756       -3.9025697554        0.1018035050
 C          3.2441985571       -1.8493720565        0.9443080590
 C          2.2111745578       -0.9267795738        0.9155440524
 C          2.2314158387        0.1985206631        1.9101920492
 C         -2.4438630978       -0.0031645527       -0.9500156528
 C         -2.0274679205        0.9686200698       -2.0153729936
 C         -3.7639463072       -0.4252503102       -0.9101843689
 H         -6.1105002501       -1.3831738491        0.9920904128
 H         -6.1886077335       -1.4179497016       -0.7721482651
 H         -5.7049824398       -2.8624720114        0.1287705515
 H         -3.5985071642       -2.5668727094        1.6704713137
 H         -1.5342920950       -2.6579292328        2.6259690039
 H         -0.4379650087       -1.2877671704        2.4242117553
 H         -0.2760991526       -2.6893646828        1.3850040800
 H          2.5043269000        1.8321420939       -2.6319445373
 H          2.5920578196        0.5164307208       -1.4546963604
 H          1.1953148155        0.6518281253       -2.5076949006
 H          2.2594272715        3.8409035923       -1.5740288553
 H          0.5723279048        6.2902684506       -0.5857111477
 H          1.1508473930        6.1472785525        1.0726942685
 H          2.2701192839        5.9267162455       -0.2823724316
 H         -0.4805617602        4.3845766006        1.6328247684
 H         -2.2666824105        1.6376344464        1.3224840945
 H         -1.0097622932        0.9802307533        2.3507385505
 H         -1.5735995008        2.6352920346        2.6043976897
 H         -0.8150593970       -2.2139374170       -1.5527775976
 H          0.2796514550       -3.2591818583       -2.4726703233
 H          0.2748452210       -1.5187923891       -2.7437960257
 H          2.3090213716       -3.8337686945       -1.5984016543
 H          5.3433845465       -3.4293266959        0.4228932640
 H          4.1785717318       -4.6912330399        0.8164050252
 H          4.5747937365       -4.3645623959       -0.8701909696
 H          4.0294999211       -1.7424129802        1.6801725524
 H          2.9725800737        0.0127804501        2.6846390148
 H          2.4803786443        1.1321104120        1.4106628397
 H          1.2612261788        0.3286088948        2.3788708736
 H         -1.3173473542        0.5016056386       -2.6959364055
 H         -1.5417330638        1.8328540074       -1.5723498403
 H         -2.8870866624        1.3006587350       -2.5931337725
 H         -4.4680019454       -0.0273004425       -1.6281508934
