  78
  -129.987983240000        1.00000000000000      !
 C         -4.1765867392        4.2424038453        1.3491255016
 C         -4.7051746272        3.0527837816        0.8714111942
 C         -3.8570709821        2.1424320676        0.2358134672
 C         -4.3710224837        0.8780328641       -0.2624523037
 N         -3.6847825043       -0.2357125643       -0.3511102719
 C         -4.5450793548       -1.1780348847       -0.8576411215
 C         -4.3447419540       -2.5220340680       -1.1568720288
 C         -5.4168545939       -3.2295372363       -1.6578201743
 C         -6.6623468073       -2.6331087837       -1.8655261777
 C         -6.8814671180       -1.3004581863       -1.5801856916
 C         -5.8095695122       -0.5839508654       -1.0749791957
 N         -5.6635574691        0.7201706862       -0.6805426594
 C         -2.5075091946        2.4257130289        0.0845095528
 C         -1.9496733385        3.6050591692        0.6037722185
 C         -0.5590100926        3.9363059857        0.5771954263
 N         -0.2642783153        5.2179073546        1.0810103539
 N          0.9014021688        5.5971652084        1.1197261733
 N          1.9726295603        5.0524018275        0.8142387643
 C          1.8607618833        3.7414251557        0.3163222016
 C          3.1196914315        3.0975986526        0.0117613560
 C          4.2058464818        3.8756926499       -0.4124357811
 C          5.4056746820        3.2796330383       -0.7467808444
 C          5.5529109946        1.9056924294       -0.6776958009
 C          4.4914283370        1.1146094664       -0.2275922031
 C          4.6502385458       -0.3260720396       -0.1760450438
 N          5.8040289334       -0.9419338552       -0.2841950140
 C          5.5355179585       -2.2765609878       -0.2141477118
 C          6.3806394395       -3.3836490985       -0.2687469426
 C          5.8023550386       -4.6307700376       -0.1833241163
 C          4.4191662435       -4.7981611070       -0.0474928180
 C          3.5602746958       -3.7192989302        0.0115407416
 C          4.1379014694       -2.4634709256       -0.0683902853
 N          3.6063516426       -1.2041257747       -0.0412795335
 C          3.2985641812        1.7178324069        0.1483527992
 C          0.5816408555        3.2106877414        0.1549916497
 C          0.5096269577        1.9106955713       -0.5481829908
 C          0.9971779397        1.8274916846       -1.8488200631
 C          1.1010601369        0.5984389389       -2.4762321946
 C          0.7136107086       -0.5542394653       -1.8190155525
 C          0.1774551327       -0.4726584061       -0.5361758732
 C         -0.2883903431       -1.6713952946        0.1534358088
 N          0.4202069789       -2.7523206514        0.3567331899
 C         -0.4097730703       -3.6086621500        1.0335243213
 C         -0.1892338923       -4.8990381576        1.5035102627
 C         -1.2364086682       -5.5341687500        2.1355095336
 C         -2.4782674496       -4.9160292209        2.3062848540
 C         -2.7166312737       -3.6339275700        1.8562249102
 C         -1.6689135107       -2.9850660382        1.2219761523
 N         -1.5481159448       -1.7383801249        0.6699400918
 C          0.0801022494        0.7599141772        0.1002255321
 C         -2.8349733841        4.5146253591        1.2264135465
 H         -4.8248542498        4.9565656563        1.8354783011
 H         -5.7511141459        2.8268821784        1.0167043580
 H         -3.3867455509       -2.9921280523       -1.0045108306
 H         -5.2933495720       -4.2749309629       -1.8976340374
 H         -7.4712871578       -3.2297919602       -2.2592379986
 H         -7.8429919117       -0.8368953156       -1.7423800632
 H         -6.3607261457        1.4433941127       -0.7302917678
 H         -1.9104178765        1.7179608855       -0.4617194500
 H          4.0825974460        4.9456843616       -0.4756972992
 H          6.2329809765        3.8918132351       -1.0737717957
 H          6.4759120891        1.4210575279       -0.9512748930
 H          7.4459105980       -3.2555683819       -0.3741681806
 H          6.4294824510       -5.5095198410       -0.2226157522
 H          4.0193311545       -5.7997761062        0.0121292508
 H          2.4906006520       -3.8212862229        0.1135217650
 H          2.6218185616       -1.0001492967        0.0130403036
 H          2.5132370960        1.1193698856        0.5793740479
 H          1.3132488404        2.7257334750       -2.3576571081
 H          1.4954104850        0.5418724325       -3.4792130248
 H          0.8074541989       -1.5208358997       -2.2891455934
 H          0.7679658957       -5.3786571339        1.3723546749
 H         -1.0999384538       -6.5383760627        2.5091527789
 H         -3.2688213768       -5.4581678500        2.8038774959
 H         -3.6754110886       -3.1541219723        1.9840049241
 H         -2.3014308021       -1.0719829039        0.4652669494
 H         -0.2948994824        0.8152244422        1.1123384799
 H         -2.4298585398        5.4343135564        1.6175870752
