  49
        -81.41608117
 C         -6.2265701091        3.4778113634       -0.2228836884
 C         -6.3120347373        2.6089104023        0.8536841934
 C         -5.4679128636        1.5182372022        0.9385548339
 C         -4.5291813915        1.2880512499       -0.0651691966
 N         -3.6715937261        0.1825577444        0.0161650238
 C         -4.0658775304       -1.1263078651        0.2500930528
 C         -5.3389985480       -1.6467472422        0.4057274449
 C         -5.4562525844       -3.0153853613        0.6080838261
 C         -4.3365175642       -3.8387739276        0.6434021179
 C         -3.0628698547       -3.3262190638        0.4623057674
 C         -2.9219308318       -1.9594798856        0.2575918227
 C         -1.7927782029       -1.1061676413        0.0146594773
 C         -0.4324034088       -1.3331180807       -0.0845150124
 C          0.4271104989       -0.2508876548       -0.2938903312
 C          1.8652095061       -0.4615604927       -0.3718862822
 C          2.3562439163       -1.6067978469       -1.0442722615
 N          3.6628731546       -1.8737889210       -1.1672335978
 C          4.5098595072       -1.0209714302       -0.6759424645
 O          5.8468893834       -1.2112545129       -0.6635654033
 C          6.3780784802       -0.1121318178       -0.0572338376
 N          7.6532152201        0.0538346810        0.1223977239
 C          8.0452914888        1.1813778332        0.7435075336
 C          7.1451811036        2.1353725719        1.2016529649
 C          5.7864149669        1.9693380330        1.0183128128
 C          5.3593503702        0.7960858742        0.3595396464
 C          4.1474727570        0.2157130163       -0.0429062267
 C          2.7707691590        0.4637854289        0.1275021624
 C         -0.1042195718        1.0478367967       -0.4166092678
 C         -1.4581775827        1.2939968217       -0.3297665520
 C         -2.3086435763        0.2119825798       -0.1289398897
 C         -4.4450513762        2.1608194182       -1.1480491662
 C         -5.2912222942        3.2510228416       -1.2201305197
 H         -6.8868670760        4.3290618549       -0.2843444699
 H         -7.0348871721        2.7856396588        1.6357953852
 H         -5.5119179236        0.8532828819        1.7883222034
 H         -6.2146419191       -1.0175432437        0.3584451387
 H         -6.4372870690       -3.4462808926        0.7365495137
 H         -4.4657818869       -4.8980656079        0.8065564748
 H         -2.1974041045       -3.9703298965        0.4755187493
 H         -0.0327805806       -2.3281778900        0.0324693975
 H          1.6966729752       -2.2711066678       -1.5760997036
 H          9.1103132943        1.2946198458        0.8626055660
 H          7.5261713020        3.0137015009        1.6994742368
 H          5.0704381547        2.7030612297        1.3529241542
 H          2.4427947153        1.3219150154        0.6919459920
 H          0.5720865089        1.8702610046       -0.5897351559
 H         -1.8414284592        2.3003026900       -0.4034867493
 H         -3.7328498668        1.9644185588       -1.9357189816
 H         -5.2252393937        3.9224521840       -2.0629875799
