  49
        -81.41608117
 C         -6.2265701091        3.4778113634       -0.2228836884
 C         -6.3120347373        2.6089104023        0.8536841934
 C         -5.4679128636        1.5182372022        0.9385548339
 C         -4.5291813915        1.2880512499       -0.0651691966
 N         -3.6715937261        0.1825577444        0.0161650238
 C         -4.0658775304       -1.1263078651        0.2500930528
 C         -5.3389985480       -1.6467472422        0.4057274449
 C         -5.4562525844       -3.0153853613        0.6080838261
 C         -4.3365175642       -3.8387739276        0.6434021179
 C         -3.0628698547       -3.3262190638        0.4623057674
 C         -2.9219308318       -1.9594798856        0.2575918227
 C         -1.7927782029       -1.1061676413        0.0146594773
 C         -0.4324034088       -1.3331180807       -0.0845150124
 C          0.4271104989       -0.2508876548       -0.2938903312
 C          1.8652095061       -0.4615604927       -0.3718862822
 C          2.3562439163       -1.6067978469       -1.0442722615
 N          3.6628731546       -1.8737889210       -1.1672335978
 C          4.5098595072       -1.0209714302       -0.6759424645
 O          5.8468893834       -1.2112545129       -0.6635654033
 C          6.3780784802       -0.1121318178       -0.0572338376
 N          7.6532152201        0.0538346810        0.1223977239
 C          8.0452914888        1.1813778332        0.7435075336
 C          7.1451811036        2.1353725719        1.2016529649
 C          5.7864149669        1.9693380330        1.0183128128
 C          5.3593503702        0.7960858742        0.3595396464
 C          4.1474727570        0.2157130163       -0.0429062267
 C          2.7707691590        0.4637854289        0.1275021624
 C         -0.1042195718        1.0478367967       -0.4166092678
 C         -1.4581775827        1.2939968217       -0.3297665520
 C         -2.3086435763        0.2119825798       -0.1289398897
 C         -4.4450513762        2.1608194182       -1.1480491662
 C         -5.2912222942        3.2510228416       -1.2201305197
 H         -6.8868670760        4.3290618549       -0.2843444699
 H         -7.0348871721        2.7856396588        1.6357953852
 H         -5.5119179236        0.8532828819        1.7883222034
 H         -6.2146419191       -1.0175432437        0.3584451387
 H         -6.4372870690       -3.4462808926        0.7365495137
 H         -4.4657818869       -4.8980656079        0.8065564748
 H         -2.1974041045       -3.9703298965        0.4755187493
 H         -0.0327805806       -2.3281778900        0.0324693975
 H          1.6966729752       -2.2711066678       -1.5760997036
 H          9.1103132943        1.2946198458        0.8626055660
 H          7.5261713020        3.0137015009        1.6994742368
 H          5.0704381547        2.7030612297        1.3529241542
 H          2.4427947153        1.3219150154        0.6919459920
 H          0.5720865089        1.8702610046       -0.5897351559
 H         -1.8414284592        2.3003026900       -0.4034867493
 H         -3.7328498668        1.9644185588       -1.9357189816
 H         -5.2252393937        3.9224521840       -2.0629875799
  49
        -81.41603137
 C         -6.8214038294        2.7150955939       -1.0150554424
 C         -6.6969353439        2.2522307995        0.2854637617
 C         -5.6593946272        1.4065821693        0.6287632225
 C         -4.7362777788        1.0137621063       -0.3381359477
 N         -3.6809849366        0.1574074492        0.0046809624
 C         -3.8077813839       -1.0479264724        0.6785255287
 C         -4.9506490439       -1.6943629069        1.1158589503
 C         -4.7959983732       -2.9203822649        1.7495325430
 C         -3.5390900758       -3.4859931706        1.9306275014
 C         -2.3949194185       -2.8539718009        1.4731514905
 C         -2.5255497062       -1.6262239054        0.8362583223
 C         -1.5910284826       -0.7210166140        0.2287208384
 C         -0.2161654252       -0.7303288282        0.0774897977
 C          0.4078839346        0.3457009480       -0.5594328465
 C          1.8548317826        0.3714134059       -0.7190018775
 C          2.4003312172        0.8523945787       -1.9331679965
 N          3.7178482742        0.9159349841       -2.1645419238
 C          4.5211393798        0.4824494523       -1.2409757945
 O          5.8667173347        0.5701696019       -1.3153273670
 C          6.3435896066        0.0287816169       -0.1591987223
 N          7.6097748488       -0.0625985159        0.1130964387
 C          7.9469597665       -0.6098661145        1.2952734002
 C          7.0011661779       -1.0504701513        2.2127734923
 C          5.6513984354       -0.9566032781        1.9356802202
 C          5.2812866909       -0.3922786125        0.6955449831
 C          4.0979938743       -0.1063455093       -0.0020085992
 C          2.7115301653       -0.1257483759        0.2528660910
 C         -0.3678313976        1.4182663179       -1.0406883450
 C         -1.7387714591        1.4485927109       -0.8965934764
 C         -2.3557560495        0.3674672475       -0.2759897052
 C         -4.8636830126        1.4770198106       -1.6459723860
 C         -5.9025697363        2.3260263036       -1.9769583006
 H         -7.6324204190        3.3764599112       -1.2782709181
 H         -7.4067691367        2.5583435978        1.0391377239
 H         -5.5419863723        1.0651464785        1.6465621712
 H         -5.9314957919       -1.2715940157        0.9606787117
 H         -5.6708399819       -3.4439050524        2.1033492090
 H         -3.4569164161       -4.4397807946        2.4296905532
 H         -1.4226840923       -3.3037944189        1.6021087126
 H          0.3692412105       -1.5611253691        0.4393694375
 H          1.7706069394        1.1032438137       -2.7697265550
 H          9.0055404259       -0.6830575349        1.4831748819
 H          7.3393138995       -1.4732632759        3.1463005468
 H          4.9006032837       -1.3039711573        2.6274733035
 H          2.3417578283       -0.4569073551        1.2100436730
 H          0.1351276788        2.2523371303       -1.5043848310
 H         -2.3115532390        2.2952634645       -1.2429716207
 H         -4.1603395326        1.1493638059       -2.3971302887
 H         -6.0007406780        2.6775800387       -2.9929470381
  49
        -81.41595155
 C         -6.2412736165        3.4695768429       -0.1301841827
 C         -5.1160455549        3.4935628235        0.6788113445
 C         -4.2629025778        2.4073413320        0.7191500236
 C         -4.5316406242        1.2846169179       -0.0611385537
 N         -3.6687941705        0.1807027703       -0.0238563066
 C         -4.0543921200       -1.1356458010        0.1795951255
 C         -5.3129418608       -1.6560182799        0.4281935553
 C         -5.4165011021       -3.0254379553        0.6309963629
 C         -4.2963262539       -3.8483780740        0.5942921136
 C         -3.0325743334       -3.3294762881        0.3688041794
 C         -2.9052042105       -1.9614518879        0.1651620032
 C         -1.7821644376       -1.0954272988       -0.0596653332
 C         -0.4222338658       -1.3141070581       -0.1811478799
 C          0.4274037883       -0.2243048344       -0.3873527828
 C          1.8678514036       -0.4263556267       -0.4562421873
 C          2.3719300355       -1.5447042241       -1.1619004591
 N          3.6811710868       -1.8102708456       -1.2623033817
 C          4.5165138984       -0.9825156583       -0.7125457009
 O          5.8511092136       -1.1846079727       -0.6633934317
 C          6.3683929905       -0.1201109321        0.0126097826
 N          7.6363437299        0.0215945873        0.2516392909
 C          8.0142169885        1.1119671703        0.9446135808
 C          7.1051590870        2.0518002420        1.4145669466
 C          5.7536465132        1.9120419840        1.1676380709
 C          5.3418063314        0.7783004713        0.4330110028
 C          4.1414004048        0.2293945933       -0.0395002415
 C          2.7603038905        0.4790638301        0.0978824592
 C         -0.1146975306        1.0674416081       -0.5266430467
 C         -1.4693868432        1.3044628550       -0.4233211453
 C         -2.3051101466        0.2231175570       -0.1640225952
 C         -5.6612601190        1.2624012044       -0.8763560811
 C         -6.5106158572        2.3522745883       -0.9046737997
 H         -6.9060317535        4.3192047305       -0.1565550247
 H         -4.9055783977        4.3598356323        1.2878098650
 H         -3.3995698826        2.4099890347        1.3679510868
 H         -6.1853982391       -1.0224839866        0.4766771914
 H         -6.3865938758       -3.4567302887        0.8249592652
 H         -4.4154090014       -4.9092257267        0.7550454327
 H         -2.1630070353       -3.9681432801        0.3577084255
 H         -0.0149734762       -2.3086434797       -0.0874530633
 H          1.7231712445       -2.1856464380       -1.7341859625
 H          9.0745178748        1.2057227351        1.1124602069
 H          7.4737702198        2.8985644806        1.9728911675
 H          5.0319278505        2.6364585047        1.5100149295
 H          2.4170892091        1.3189324305        0.6805931314
 H          0.5527244136        1.8893605835       -0.7343551558
 H         -1.8663054009        2.3001887377       -0.5497507002
 H         -5.8523650385        0.4002238133       -1.4979076069
 H         -7.3830466554        2.3317257633       -1.5402934134
  49
        -81.41593411
 C         -6.7775895991        2.7878011153       -0.9396713537
 C         -6.6192606979        2.3271832099        0.3579347755
 C         -5.5956787140        1.4519128061        0.6670804103
 C         -4.7206899841        1.0279688530       -0.3308440829
 N         -3.6764890228        0.1465526538       -0.0180748577
 C         -3.8097999925       -1.0443242507        0.6790883206
 C         -4.9549541006       -1.6652861302        1.1467743270
 C         -4.8083931015       -2.8830259328        1.7975730445
 C         -3.5572729505       -3.4653641727        1.9668875036
 C         -2.4114776623       -2.8586937494        1.4804431306
 C         -2.5342617750       -1.6398098086        0.8253477712
 C         -1.5965046483       -0.7587221943        0.1879309633
 C         -0.2230307723       -0.7853271490        0.0265110333
 C          0.4058227333        0.2714533377       -0.6369034881
 C          1.8541063823        0.2911526900       -0.7870584197
 C          2.4123836184        0.7160543116       -2.0159936788
 N          3.7329921566        0.7804008440       -2.2304824004
 C          4.5264799147        0.4040304592       -1.2743362347
 O          5.8719106810        0.5102214892       -1.3291261591
 C          6.3352110617        0.0433312324       -0.1354876161
 N          7.5965366928       -0.0033690186        0.1682814162
 C          7.9190293260       -0.4722218219        1.3878954267
 C          6.9627133635       -0.8781607691        2.3105955557
 C          5.6180302019       -0.8325128186        1.9999475837
 C          5.2635028265       -0.3509117823        0.7207109062
 C          4.0899792558       -0.1262689230       -0.0133593516
 C          2.6995095006       -0.1510893160        0.2195864530
 C         -0.3627411598        1.3373263836       -1.1419004796
 C         -1.7315510449        1.3877462789       -0.9824705381
 C         -2.3533049597        0.3303307912       -0.3266580683
 C         -4.8827206708        1.4879966823       -1.6356691481
 C         -5.9076943229        2.3662490928       -1.9327353462
 H         -7.5764971733        3.4735572244       -1.1760963188
 H         -7.2909212744        2.6579915514        1.1357103910
 H         -5.4514194242        1.1102931802        1.6813763128
 H         -5.9314169523       -1.2288882262        1.0014703858
 H         -5.6849375408       -3.3873351792        2.1743659424
 H         -3.4815066462       -4.4123820319        2.4797038627
 H         -1.4441375338       -3.3213123976        1.6005913657
 H          0.3581416279       -1.6122372656        0.4038423111
 H          1.7920209013        0.9208784253       -2.8718736883
 H          8.9744550489       -0.5100059029        1.6019035668
 H          7.2889469062       -1.2354336204        3.2751868476
 H          4.8591833813       -1.1547397973        2.6951289801
 H          2.3175068828       -0.4406474290        1.1854084346
 H          0.1451797016        2.1525318640       -1.6331852060
 H         -2.2982361586        2.2329289796       -1.3421561786
 H         -4.2173701062        1.1366961212       -2.4103892081
 H         -6.0315883743        2.7178670608       -2.9458982733
  49
        -81.41590247
 C         -6.8914513736        2.5797522084       -1.1381107727
 C         -6.8189453624        2.1079870407        0.1631235522
 C         -5.7578885835        1.3169666702        0.5609782262
 C         -4.7582887881        0.9878558729       -0.3521654246
 N         -3.6841259672        0.1769866902        0.0381684131
 C         -3.7916157534       -1.0523678549        0.6723205387
 C         -4.9242032065       -1.7499614229        1.0538645750
 C         -4.7470121060       -2.9871609504        1.6599757579
 C         -3.4778267950       -3.5141703815        1.8683589137
 C         -2.3426583299       -2.8318993607        1.4635446143
 C         -2.4963157229       -1.5928472313        0.8544416849
 C         -1.5745916880       -0.6426548926        0.2988634702
 C         -0.1987517422       -0.6167926811        0.1666101828
 C          0.4120614692        0.4927141201       -0.4253053164
 C          1.8564992190        0.5286543776       -0.5965991379
 C          2.3905798093        1.1056314676       -1.7745305333
 N          3.7037860827        1.1575075801       -2.0306691727
 C          4.5142677813        0.6149425512       -1.1730936882
 O          5.8595684790        0.6597598900       -1.2790793800
 C          6.3450464223       -0.0139240078       -0.1982323528
 N          7.6133159181       -0.1875470415        0.0195465630
 C          7.9590491382       -0.8702233983        1.1262229716
 C          7.0215839673       -1.3634570687        2.0250417440
 C          5.6699392047       -1.1819407281        1.8060085017
 C          5.2902771583       -0.4752346983        0.6447024587
 C          4.1011909313       -0.0737663483        0.0168908497
 C          2.7226780435       -0.0707393444        0.3082797692
 C         -0.3817429860        1.5702639413       -0.8676146565
 C         -1.7556647452        1.5604295599       -0.7519036861
 C         -2.3584546029        0.4391157161       -0.1913808576
 C         -4.8319509011        1.4626471955       -1.6603866674
 C         -5.8949791597        2.2565583050       -2.0457853459
 H         -7.7217535032        3.1973205967       -1.4440923023
 H         -7.5895481280        2.3634521090        0.8747316020
 H         -5.6836787964        0.9689033467        1.5805019770
 H         -5.9141572484       -1.3582235486        0.8770169442
 H         -5.6139839909       -3.5496329159        1.9706130273
 H         -3.3781774594       -4.4772711390        2.3459363860
 H         -1.3597184864       -3.2514278554        1.6118743657
 H          0.3971379496       -1.4505631487        0.5031438276
 H          1.7520537411        1.4441215196       -2.5725023198
 H          9.0181025571       -1.0095056760        1.2685511711
 H          7.3669614697       -1.8972214268        2.8969139307
 H          4.9243948316       -1.5684196868        2.4826785283
 H          2.3686669322       -0.4726048290        1.2440380428
 H          0.1072182375        2.4368038223       -1.2841515239
 H         -2.3429551210        2.4054652687       -1.0775818253
 H         -4.0667735028        1.1852093057       -2.3702812326
 H         -5.9500931812        2.6171417898       -3.0618752632
  49
        -81.41498794
 C         -6.9017558207        2.7291316151       -0.6083620492
 C         -6.7610174790        1.9846785936        0.5524339785
 C         -5.7008952464        1.1103017679        0.6943125181
 C         -4.7702659328        0.9741912779       -0.3341135474
 N         -3.6868320343        0.0981780388       -0.1762153695
 C         -3.7791696978       -1.2170039600        0.2542438614
 C         -4.9055125893       -1.9897945956        0.4764268001
 C         -4.7154411336       -3.3060994012        0.8770852914
 C         -3.4399167789       -3.8332515678        1.0421364475
 C         -2.3100998932       -3.0683908550        0.8033352721
 C         -2.4764999582       -1.7490546106        0.4014159189
 C         -1.5644453979       -0.6947176013        0.0576740798
 C         -0.1871543457       -0.5848868548        0.0879489108
 C          0.4143379342        0.6274785017       -0.2648499328
 C          1.8563830164        0.7838534656       -0.1529448301
 C          2.3697353326        2.0307886318        0.2814853050
 N          3.6739561625        2.2533122460        0.4862488031
 C          4.4947149118        1.2603289601        0.3202082617
 O          5.8342034649        1.3654677950        0.4493551569
 C          6.3333225709        0.1183380352        0.2188259482
 N          7.5988218984       -0.1637278531        0.2896987442
 C          7.9592480868       -1.4366482757        0.0452682045
 C          7.0405684451       -2.4231875883       -0.2912971120
 C          5.6924547283       -2.1337852313       -0.3748503125
 C          5.2962867223       -0.8050864443       -0.1100692375
 C          4.1014474594       -0.0713618157       -0.0432029055
 C          2.7362781154       -0.2781317857       -0.3246931168
 C         -0.3957500229        1.7136647405       -0.6553654294
 C         -1.7720000588        1.6300903499       -0.6763913675
 C         -2.3622720755        0.4250128845       -0.3115840627
 C         -4.9146377746        1.7186437973       -1.5022296918
 C         -5.9777954753        2.5927226847       -1.6322201995
 H         -7.7289902788        3.4139555038       -0.7138655255
 H         -7.4748265355        2.0918886377        1.3552821703
 H         -5.5710322000        0.5460344860        1.6060531205
 H         -5.8985952220       -1.5914641692        0.3341872605
 H         -5.5766506926       -3.9304868983        1.0588306655
 H         -3.3303813437       -4.8608468383        1.3545466019
 H         -1.3219942753       -3.4856382882        0.9201010119
 H          0.4162996754       -1.4173239960        0.4138303274
 H          1.7173346231        2.8352069611        0.5746217970
 H          9.0142732405       -1.6400102756        0.1289185851
 H          7.3976933587       -3.4234923288       -0.4826512143
 H          4.9608507188       -2.8872605739       -0.6198838563
 H          2.4048071968       -1.2274160611       -0.7139858612
 H          0.0791967125        2.6352964175       -0.9520986620
 H         -2.3703234164        2.4854602361       -0.9502722980
 H         -4.2046601366        1.5925946893       -2.3061435233
 H         -6.0882739782        3.1666181800       -2.5399570004
  49
        -81.41437086
 C         -6.4843733796        3.1356724337       -0.5434406422
 C         -6.8010263501        2.0349430986        0.2365648370
 C         -5.8696415099        1.0347663300        0.4465572091
 C         -4.6079345946        1.1325079885       -0.1343797423
 N         -3.6535337622        0.1222613834        0.0489136933
 C         -3.8393106403       -1.2278465662       -0.2086009599
 C         -4.9818421633       -1.9004925544       -0.6055702593
 C         -4.8864338000       -3.2702052111       -0.8115501712
 C         -3.6838079378       -3.9452444677       -0.6355968476
 C         -2.5313428724       -3.2721340948       -0.2668746052
 C         -2.6027839636       -1.9008531245       -0.0567369656
 C         -1.6328897461       -0.9029023658        0.2981645986
 C         -0.2667988676       -0.9310143388        0.5192850554
 C          0.3903291841        0.2572507685        0.8448738084
 C          1.8436705009        0.3045763927        0.9471731951
 C          2.4511835770        0.9757236863        2.0322111542
 N          3.7784337722        1.1259682526        2.1391393674
 C          4.5295600434        0.6115009080        1.2137341296
 O          5.8655843902        0.8012433298        1.1369792211
 C          6.2717691511        0.1641781011        0.0029810931
 N          7.5038903324        0.1541601429       -0.4061038613
 C          7.7641839339       -0.4856823589       -1.5613214671
 C          6.7738709156       -1.1049458150       -2.3143906943
 C          5.4602294315       -1.1038456714       -1.8895478021
 C          5.1720968839       -0.4422375293       -0.6754477453
 C          4.0435916561       -0.1656618941        0.1090253388
 C          2.6444626493       -0.3028374560       -0.0068952897
 C         -0.3443379489        1.4441969287        1.0189473887
 C         -1.6992068934        1.5001071629        0.7699918549
 C         -2.3361339332        0.3306978022        0.3674093605
 C         -4.2901499234        2.2405375368       -0.9183696461
 C         -5.2265320285        3.2361811782       -1.1172497457
 H         -7.2148301031        3.9135433997       -0.7041164784
 H         -7.7777596288        1.9573484921        0.6898490560
 H         -6.1041239505        0.1885748153        1.0749682531
 H         -5.9154868989       -1.3824780203       -0.7621408355
 H         -5.7644453186       -3.8188067361       -1.1162137135
 H         -3.6486226217       -5.0117638061       -0.7993746360
 H         -1.5959562828       -3.7964653407       -0.1468414131
 H          0.2877871913       -1.8531844630        0.4399645728
 H          1.8708705394        1.3286676699        2.8678480980
 H          8.7977018399       -0.4823737968       -1.8662826904
 H          7.0496510535       -1.5923477901       -3.2368561339
 H          4.6762740653       -1.5865097442       -2.4511092969
 H          2.2147145293       -0.7988458282       -0.8624440506
 H          0.1831104865        2.3379988920        1.3144348220
 H         -2.2464541289        2.4235251645        0.8828393997
 H         -3.3171114242        2.2996774318       -1.3835398085
 H         -4.9755046304        4.0894986138       -1.7291695281
  49
        -81.41393749
 C         -6.8728530468        2.4031712506       -1.4256992268
 C         -6.9744279313        1.8361737144       -0.1649468678
 C         -5.9230911496        1.1109954828        0.3635385983
 C         -4.7557536787        0.9433005025       -0.3788054849
 N         -3.6874348374        0.1898491222        0.1234866634
 C         -3.7688693667       -1.1081420701        0.6122746779
 C         -4.8802197214       -1.9074527287        0.8115468939
 C         -4.6747793798       -3.1886916388        1.3101196644
 C         -3.3978772024       -3.6588607352        1.5888973247
 C         -2.2792168055       -2.8743911604        1.3587887406
 C         -2.4614007650       -1.5910460155        0.8596487526
 C         -1.5579421032       -0.5397571327        0.4860431889
 C         -0.1817434753       -0.4449225081        0.4228095279
 C          0.4105764569        0.7485815763       -0.0059381189
 C          1.8486453175        0.8221892349       -0.1974492350
 C          2.3578225491        1.6680725367       -1.2161182970
 N          3.6557489549        1.7387201211       -1.5327009019
 C          4.4771325016        0.9494967331       -0.9070077095
 O          5.8114431905        0.9417391873       -1.1087869018
 C          6.3081412146       -0.0409699000       -0.3052746583
 N          7.5667595345       -0.3619084264       -0.2728385583
 C          7.9213556499       -1.3637292238        0.5513133536
 C          7.0082852529       -2.0312023346        1.3573303244
 C          5.6685285242       -1.6922982716        1.3362023517
 C          5.2784206565       -0.6496754943        0.4709885686
 C          4.0875163842       -0.0102099021        0.0864315495
 C          2.7357841521       -0.0144255351        0.4741899194
 C         -0.4156514129        1.8541114379       -0.3139154688
 C         -1.7905015473        1.7670872192       -0.2941606750
 C         -2.3672307117        0.5512654758        0.0579869500
 C         -4.6536632225        1.5174935235       -1.6460263375
 C         -5.7083239523        2.2443950570       -2.1614380562
 H         -7.6974570849        2.9665247824       -1.8342956063
 H         -7.8768549707        1.9648169975        0.4135107519
 H         -5.9890953127        0.6928070155        1.3567476532
 H         -5.8750761888       -1.5610158586        0.5782048518
 H         -5.5266577222       -3.8288448608        1.4805012705
 H         -3.2762793716       -4.6568878625        1.9821786439
 H         -1.2873479835       -3.2486534766        1.5594132771
 H          0.4280763043       -1.2973779809        0.6760271617
 H          1.7035274377        2.2225361658       -1.8662980236
 H          8.9690061205       -1.6167973397        0.5420427883
 H          7.3610677327       -2.8237208788        1.9991411107
 H          4.9400059570       -2.2064510132        1.9428549477
 H          2.4206858616       -0.6220100810        1.3070501253
 H          0.0456706143        2.7961977252       -0.5622183166
 H         -2.4014430885        2.6221799353       -0.5413818635
 H         -3.7555023184        1.3646948736       -2.2261774589
 H         -5.6249760387        2.6794050147       -3.1460104447
