  49
  -81.1458480220000       0.200350642347584      !
 C         -6.9626256676        2.4259711377        0.7550759501
 C         -6.7942672114        1.2665114183        1.4956129250
 C         -5.7108309891        0.4410468510        1.2627158129
 C         -4.7853854725        0.7736141437        0.2756515219
 N         -3.6837011727       -0.0590981552        0.0360859859
 C         -3.7399007599       -1.4279051489       -0.1788156698
 C         -4.8422156950       -2.2613681668       -0.2531679089
 C         -4.6169842568       -3.6079075140       -0.5075005729
 C         -3.3309308903       -4.1025900469       -0.6915806608
 C         -2.2269330392       -3.2679720903       -0.6419478414
 C         -2.4283143028       -1.9169154856       -0.3886620105
 C         -1.5496012980       -0.7853540404       -0.2924117992
 C         -0.1786042840       -0.6322369321       -0.3930513052
 C          0.3811546661        0.6365009603       -0.2200709144
 C          1.8222763710        0.8258044159       -0.3044149372
 C          2.3234989378        1.9790039216       -0.9540446200
 N          3.6323269721        2.2359775552       -1.0738619863
 C          4.4709874451        1.3651872627       -0.6000122429
 O          5.8092109144        1.5457224752       -0.5808289973
 C          6.3310105425        0.4308045530        0.0038287933
 N          7.6044390447        0.2530001850        0.1840661576
 C          7.9874550810       -0.8894248377        0.7831501626
 C          7.0796429851       -1.8475534129        1.2171209914
 C          5.7225438186       -1.6689217232        1.0331720808
 C          5.3048579551       -0.4789688668        0.3984034955
 C          4.0976737680        0.1179561293        0.0048205728
 C          2.7182000226       -0.1221928024        0.1691369492
 C         -0.4542491164        1.7381297313        0.0487267334
 C         -1.8224809348        1.6061171477        0.1567732150
 C         -2.3751999534        0.3437815433       -0.0320701101
 C         -4.9568155858        1.9377504461       -0.4704545894
 C         -6.0415604358        2.7581960721       -0.2258183070
 H         -7.8094506548        3.0683202121        0.9413772199
 H         -7.5059252713        1.0076947306        2.2651259061
 H         -5.5601267408       -0.4490301025        1.8554459164
 H         -5.8451149521       -1.8814169675       -0.1319039355
 H         -5.4590582062       -4.2801934615       -0.5671097232
 H         -3.1936976020       -5.1557576762       -0.8853130562
 H         -1.2317281459       -3.6534356177       -0.8006833816
 H          0.4528792415       -1.4795835769       -0.6101064036
 H          1.6685956914        2.6611168531       -1.4689542363
 H          9.0512841952       -1.0110508253        0.9045243691
 H          7.4534233124       -2.7388161912        1.6972351407
 H          5.0011844967       -2.4050972356        1.3503815023
 H          2.3808844284       -0.9906291863        0.7119290008
 H         -0.0006598456        2.7040160032        0.2067674458
 H         -2.4418860476        2.4569975847        0.3960386316
 H         -4.2505359476        2.1777699022       -1.2513825223
 H         -6.1735225683        3.6560479780       -0.8105478409
  49
  -81.1457438314000       0.179435370066830      !
 C         -6.9228650283        2.4165987960        0.9080353213
 C         -6.7200112909        1.2481745832        1.6254290642
 C         -5.6490538896        0.4261783526        1.3308754654
 C         -4.7709242375        0.7718785105        0.3059038747
 N         -3.6790093688       -0.0561464896        0.0106560625
 C         -3.7411062927       -1.4243778531       -0.2040135008
 C         -4.8458899314       -2.2565701317       -0.2551105744
 C         -4.6279427569       -3.6025105417       -0.5175086800
 C         -3.3467018266       -4.0983684691       -0.7311285257
 C         -2.2408811969       -3.2653462237       -0.7035849859
 C         -2.4352135336       -1.9146357691       -0.4433540496
 C         -1.5533484443       -0.7841923161       -0.3632568361
 C         -0.1831602814       -0.6351829459       -0.4797699738
 C          0.3810403228        0.6323856349       -0.3145182661
 C          1.8238176943        0.8137751374       -0.3916635870
 C          2.3395120535        1.9464467027       -1.0651702200
 N          3.6514861342        2.1967388693       -1.1663168560
 C          4.4786875039        1.3404980610       -0.6485499671
 O          5.8160482824        1.5234690655       -0.5990507021
 C          6.3220175537        0.4308958995        0.0394519991
 N          7.5890289302        0.2649010794        0.2686392102
 C          7.9549192894       -0.8525327943        0.9234281587
 C          7.0356470589       -1.7966224906        1.3642630355
 C          5.6853302442       -1.6311971819        1.1275402646
 C          5.2858127521       -0.4678048801        0.4340131773
 C          4.0903894827        0.1120472111       -0.0145577625
 C          2.7069920881       -0.1227718100        0.1245738870
 C         -0.4480358138        1.7381177328       -0.0465871991
 C         -1.8147860769        1.6090163177        0.0835170543
 C         -2.3719929962        0.3461094910       -0.0878954185
 C         -4.9775665337        1.9442255899       -0.4175249642
 C         -6.0498592691        2.7608272396       -0.1117527526
 H         -7.7587972895        3.0571107902        1.1433503388
 H         -7.3941535113        0.9795461971        2.4247212847
 H         -5.4709373438       -0.4718756503        1.9036619817
 H         -5.8451806944       -1.8752532235       -0.1100193859
 H         -5.4718255684       -4.2738193902       -0.5603699488
 H         -3.2152541758       -5.1512000654       -0.9307058829
 H         -1.2498171344       -3.6514987254       -0.8849046093
 H          0.4447359635       -1.4846288074       -0.6991067626
 H          1.6954255301        2.6151595057       -1.6104308423
 H          9.0143632809       -0.9650459493        1.0848895973
 H          7.3954308740       -2.6664219607        1.8920064043
 H          4.9552620315       -2.3570538891        1.4486139980
 H          2.3561667755       -0.9758247786        0.6829682223
 H          0.0103239581        2.7041106617        0.0971773300
 H         -2.4288287550        2.4621592464        0.3283400687
 H         -4.3086535593        2.1947618573       -1.2275136312
 H         -6.2081177105        3.6669013361       -0.6769677962
  49
  -81.1457189984000       0.174781554685388      !
 C         -6.3932577535        2.5659843930        1.8593019480
 C         -6.4181897378        1.2152736643        2.1695444508
 C         -5.5200526271        0.3471457742        1.5787682754
 C         -4.5876325376        0.8309790059        0.6632561458
 N         -3.6753749470       -0.0459562988        0.0607959317
 C         -4.0007815364       -1.2379664031       -0.5689132772
 C         -5.2439860799       -1.8051076767       -0.7896157318
 C         -5.2903056694       -3.0110826963       -1.4761619158
 C         -4.1309132567       -3.6251555437       -1.9363210184
 C         -2.8872098733       -3.0484859275       -1.7405126620
 C         -2.8171821468       -1.8413920001       -1.0565770244
 C         -1.7355874697       -0.9658909825       -0.7019018311
 C         -0.3674798257       -1.0165982488       -0.8959943586
 C          0.4341027683        0.0049204916       -0.3785103641
 C          1.8793731642       -0.0422544622       -0.5445319707
 C          2.4152220031       -0.5036374776       -1.7712259136
 N          3.7312420726       -0.5737701314       -2.0096714586
 C          4.5430666495       -0.1651260435       -1.0823088556
 O          5.8878750546       -0.2569367563       -1.1663973792
 C          6.3740649041        0.2588942135       -0.0021773124
 N          7.6422327515        0.3408825511        0.2639322615
 C          7.9883377697        0.8631361351        1.4548635217
 C          7.0498940102        1.2863342018        2.3878311578
 C          5.6981524050        1.2024916005        2.1172917991
 C          5.3187445440        0.6658305405        0.8679193709
 C          4.1305410479        0.3986647880        0.1720475457
 C          2.7462487203        0.4212532753        0.4349472408
 C         -0.1625393080        1.0751585470        0.3162309690
 C         -1.5253872234        1.1488774518        0.5125719808
 C         -2.3180843832        0.1332413786       -0.0113489617
 C         -4.5643270980        2.1885550306        0.3504057705
 C         -5.4642784596        3.0483285252        0.9509234912
 H         -7.0956325826        3.2405236710        2.3241280157
 H         -7.1360060690        0.8366177053        2.8814476523
 H         -5.5173392050       -0.7014448016        1.8369459609
 H         -6.1502386651       -1.3243202015       -0.4543035532
 H         -6.2466758895       -3.4768339394       -1.6579167878
 H         -4.2051173850       -4.5644617528       -2.4632224003
 H         -1.9909427002       -3.5204796220       -2.1120115439
 H          0.0825689572       -1.8511163573       -1.4103516281
 H          1.7806047705       -0.7299984325       -2.6109890649
 H          9.0482848334        0.9307454436        1.6371291096
 H          7.3952002401        1.6882242203        3.3278786450
 H          4.9524352328        1.5377619516        2.8204539181
 H          2.3856308474        0.7315452931        1.4025339672
 H          0.4694826790        1.8612168002        0.6988596354
 H         -1.9589339855        1.9663588524        1.0682056435
 H         -3.8562683256        2.5546594889       -0.3781876182
 H         -5.4452500496        4.0988208750        0.7025631246
  49
  -81.1456125917000       0.156168868821216      !
 C         -6.4115781649        2.4270186974        2.0024119017
 C         -5.2764123836        1.9802367270        2.6604178293
 C         -4.3683852143        1.1664771405        2.0103107057
 C         -4.5917260269        0.7975859586        0.6853130873
 N         -3.6731540416       -0.0272455346        0.0216874930
 C         -3.9877710065       -1.1827485118       -0.6773696292
 C         -5.2140250424       -1.8022000048       -0.8480067690
 C         -5.2443066564       -2.9839421709       -1.5758338222
 C         -4.0842897359       -3.5338521394       -2.1099958783
 C         -2.8524010307       -2.9301373636       -1.9225086095
 C         -2.7982845722       -1.7477486749       -1.1957263578
 C         -1.7246219518       -0.8862049372       -0.7873696300
 C         -0.3573863212       -0.9081425958       -0.9927363170
 C          0.4321319623        0.0989113711       -0.4318649594
 C          1.8797506472        0.0598032314       -0.5846075588
 C          2.4290765339       -0.3157109421       -1.8336002028
 N          3.7484220988       -0.3895260033       -2.0540477584
 C          4.5489809038       -0.0697526545       -1.0834498109
 O          5.8927641381       -0.1900526062       -1.1480752339
 C          6.3656224725        0.2136912360        0.0648191170
 N          7.6282981129        0.2305847376        0.3652845464
 C          7.9608917991        0.6363126231        1.6049136275
 C          7.0125603683        1.0071638403        2.5502524603
 C          5.6662182003        0.9927260452        2.2432560527
 C          5.3012631989        0.5789937679        0.9431435453
 C          4.1231433450        0.4045703861        0.2034483234
 C          2.7334405804        0.4389099212        0.4404785711
 C         -0.1773551525        1.1486609104        0.2811819191
 C         -1.5405802932        1.1965530879        0.4845563899
 C         -2.3157978152        0.1624842989       -0.0299495524
 C         -5.7314655829        1.2495073365        0.0235924735
 C         -6.6357076424        2.0585089303        0.6853279004
 H         -7.1191878424        3.0603227208        2.5149359574
 H         -5.1008677213        2.2605525332        3.6881392516
 H         -3.4961796847        0.7935682983        2.5265370922
 H         -6.1168197988       -1.3923673142       -0.4215149292
 H         -6.1879273220       -3.4859860204       -1.7249870539
 H         -4.1464934060       -4.4535722789       -2.6718371736
 H         -1.9516389174       -3.3680888238       -2.3237467708
 H          0.1015560785       -1.7081434283       -1.5523013081
 H          1.8049399919       -0.4690883688       -2.6973909932
 H          9.0175392143        0.6521501306        1.8157357771
 H          7.3462191905        1.3129667070        3.5299290272
 H          4.9139443266        1.2903181621        2.9562791854
 H          2.3570281542        0.6887062543        1.4195816240
 H          0.4438632910        1.9430650919        0.6647921588
 H         -1.9897731382        2.0190333911        1.0200475161
 H         -5.8880829761        0.9813501676       -1.0106995394
 H         -7.5158760818        2.4088133904        0.1674858891
  49
  -81.1454837337000       0.136262209881917      !
 C         -7.0263121415        2.4169093397        0.4816705892
 C         -6.9105429126        1.2754558953        1.2593027537
 C         -5.8059847397        0.4543907727        1.1342173289
 C         -4.8058313059        0.7730833527        0.2179896589
 N         -3.6873304616       -0.0589700730        0.0753780889
 C         -3.7246492799       -1.4299419683       -0.1345241221
 C         -4.8156667359       -2.2728710783       -0.2533450070
 C         -4.5687333514       -3.6198468778       -0.4859610474
 C         -3.2721906976       -4.1061936219       -0.6061185482
 C         -2.1782085934       -3.2618642687       -0.5150861035
 C         -2.4017765758       -1.9104880355       -0.2834251745
 C         -1.5364149636       -0.7715503441       -0.1606324833
 C         -0.1657162172       -0.6059536041       -0.2303319008
 C          0.3807838850        0.6679081756       -0.0484641365
 C          1.8188884919        0.8679075832       -0.1427459761
 C          2.3056795739        2.0515938370       -0.7490365884
 N          3.6106239901        2.3078715562       -0.9047627951
 C          4.4599457057        1.4055679155       -0.5159262363
 O          5.7996274305        1.5695779978       -0.5537296352
 C          6.3342684925        0.4144206507       -0.0663493299
 N          7.6127532758        0.2081134768        0.0284880931
 C          8.0086764264       -0.9762838071        0.5292465914
 C          7.1105862096       -1.9481396184        0.9522428449
 C          5.7484304120       -1.7387816974        0.8596785361
 C          5.3165962181       -0.5045551091        0.3282536916
 C          4.0996531263        0.1304074262        0.0364962619
 C          2.7273513840       -0.1053716601        0.2519274517
 C         -0.4715859133        1.7596598998        0.2131091462
 C         -1.8414109589        1.6168189881        0.2788553428
 C         -2.3798098225        0.3522311121        0.0647750829
 C         -4.9230120471        1.9210268558       -0.5635409641
 C         -6.0294864259        2.7370214420       -0.4267076568
 H         -7.8905021250        3.0551220397        0.5830474065
 H         -7.6815388021        1.0266933303        1.9728569315
 H         -5.6989561402       -0.4216654928        1.7564344507
 H         -5.8262367872       -1.9007436684       -0.1825494281
 H         -5.4022015020       -4.2990082959       -0.5785951906
 H         -3.1181102340       -5.1599905319       -0.7831625665
 H         -1.1737282123       -3.6400556991       -0.6253902963
 H          0.4754244939       -1.4482552996       -0.4376458025
 H          1.6389999835        2.7623692759       -1.2066244228
 H          9.0753652095       -1.1207536519        0.5797888229
 H          7.4952094812       -2.8743960618        1.3503195450
 H          5.0333229782       -2.4846212742        1.1685950400
 H          2.4080509461       -0.9966222978        0.7678565286
 H         -0.0321567656        2.7282880382        0.3923825660
 H         -2.4743456940        2.4622729216        0.5017069808
 H         -4.1563326305        2.1507613237       -1.2886914821
 H         -6.1180034976        3.6221117719       -1.0384891217
  49
  -81.1450852656000       8.938243223424951E-002 !
 C         -7.0343334848        2.4431220903       -0.0424740061
 C         -6.8444431534        1.4887891143        0.9447722818
 C         -5.7409452742        0.6584859432        0.9071880290
 C         -4.8159038715        0.7789416265       -0.1282085079
 N         -3.6888700750       -0.0550010597       -0.1504449611
 C         -3.7114589064       -1.4327907751        0.0067502310
 C         -4.7957785482       -2.2904080581        0.0696981787
 C         -4.5365864498       -3.6490295799        0.1972902745
 C         -3.2348659013       -4.1333981769        0.2521021910
 C         -2.1468646488       -3.2800255206        0.1712783660
 C         -2.3825790496       -1.9169879979        0.0430453487
 C         -1.5274976664       -0.7703512040       -0.0822079666
 C         -0.1570678303       -0.5993331800       -0.0313660481
 C          0.3799434691        0.6880194439       -0.1335023815
 C          1.8136277388        0.8914521144        0.0066206501
 C          2.2694170971        2.0500575258        0.6826361922
 N          3.5631896320        2.2925847636        0.9271152076
 C          4.4301601577        1.3959860212        0.5642061352
 O          5.7641368774        1.5406443423        0.7109806573
 C          6.3217379055        0.3920966861        0.2339946924
 N          7.6003194873        0.1659083879        0.2458546586
 C          8.0205289213       -1.0120923800       -0.2498447974
 C          7.1481245642       -1.9561009299       -0.7773548042
 C          5.7865347337       -1.7243662431       -0.8001061421
 C          5.3280936002       -0.4976912842       -0.2732296429
 C          4.0992572874        0.1462716709       -0.0593679350
 C          2.7430062092       -0.0685155558       -0.3757970066
 C         -0.4869931691        1.7881208028       -0.2970360540
 C         -1.8575804803        1.6409848803       -0.3335377357
 C         -2.3836160682        0.3589177031       -0.2181798815
 C         -5.0095021884        1.7345605677       -1.1226230291
 C         -6.1158883742        2.5620311177       -1.0734516247
 H         -7.8954835179        3.0924537376       -0.0075365910
 H         -7.5539533629        1.3963301406        1.7532456473
 H         -5.5735115704       -0.0700969069        1.6867173021
 H         -5.8088077753       -1.9223665483        0.0111357099
 H         -5.3638810947       -4.3399321668        0.2503017620
 H         -3.0713245806       -5.1959187530        0.3513716114
 H         -1.1381469606       -3.6617092879        0.2010860484
 H          0.4902640422       -1.4486555082        0.1200277328
 H          1.5812795098        2.7451673031        1.1320064132
 H          9.0851555354       -1.1744932418       -0.2095000753
 H          7.5521425283       -2.8782241396       -1.1662281014
 H          5.0904420745       -2.4492875661       -1.1912008127
 H          2.4546483775       -0.9357918868       -0.9478494279
 H         -0.0613956820        2.7733838742       -0.4026458076
 H         -2.5003588959        2.5025581750       -0.4293845554
 H         -4.3028992874        1.8086092363       -1.9359269129
 H         -6.2643947185        3.3002095455       -1.8471350957
  49
  -81.1442570892000       3.720905557525754E-002 !
 C         -6.6480473381        2.5583631092       -1.1971266685
 C         -6.9048620288        1.6560096319       -0.1772800442
 C         -5.9195905788        0.7860042653        0.2519738636
 C         -4.6636682609        0.8138102711       -0.3487186292
 N         -3.6547771673       -0.0709736534        0.0567092975
 C         -3.7639990646       -1.4519110098        0.1252725212
 C         -4.8659716059       -2.2608423412       -0.0908342820
 C         -4.6935006401       -3.6332178664        0.0295086674
 C         -3.4555048696       -4.1807625426        0.3465383732
 C         -2.3435594502       -3.3774707937        0.5349770727
 C         -2.4922004140       -2.0012770745        0.4180588626
 C         -1.5806713486       -0.8960431662        0.5186988192
 C         -0.2157860057       -0.7961702558        0.7260686105
 C          0.3729056221        0.4696489170        0.7567812588
 C          1.8210247482        0.6196139252        0.8300434969
 C          2.3869317956        1.5593114856        1.7208498219
 N          3.7033871690        1.8033002961        1.7757575928
 C          4.4847644037        1.1279482663        0.9892517561
 O          5.8082967556        1.3675915518        0.8562563915
 C          6.2527297070        0.5052654146       -0.1006463751
 N          7.4846486230        0.4672472275       -0.5086952284
 C          7.7836356066       -0.4107907231       -1.4840592854
 C          6.8316763342       -1.2432089493       -2.0604044977
 C          5.5188188334       -1.2146298620       -1.6341005447
 C          5.1906503707       -0.3031667410       -0.6063237763
 C          4.0461981229        0.0874372599        0.1029531215
 C          2.6572714587       -0.1499383905        0.0369817120
 C         -0.4275050366        1.6219739393        0.6549558435
 C         -1.7826613831        1.5431551665        0.4138883288
 C         -2.3520179778        0.2786556587        0.3037019662
 C         -4.4061206110        1.7223742958       -1.3741635900
 C         -5.3961597242        2.5903164208       -1.7915004125
 H         -7.4204114935        3.2352811560       -1.5283404340
 H         -7.8770195143        1.6334481992        0.2916508770
 H         -6.1081684992        0.0995694316        1.0638655570
 H         -5.8266800303       -1.8463206355       -0.3549497381
 H         -5.5385719779       -4.2855215150       -0.1287383483
 H         -3.3602440646       -5.2523049942        0.4373503930
 H         -1.3806538909       -3.8066116116        0.7650430135
 H          0.3897432003       -1.6791941981        0.8597034544
 H          1.7853924404        2.0662244683        2.4562486328
 H          8.8162193169       -0.4223433377       -1.7919699455
 H          7.1369312602       -1.9177709728       -2.8454798849
 H          4.7647032503       -1.8581292751       -2.0585061626
 H          2.2583955826       -0.8559663142       -0.6737179719
 H          0.0482692054        2.5878219529        0.7268801790
 H         -2.3810291277        2.4356717428        0.3124727772
 H         -3.4365856931        1.7240303064       -1.8502770519
 H         -5.1915086862        3.2884521623       -2.5892069122
  49
  -81.1439331276000       2.640986638755856E-002 !
 C         -7.0009771482        2.4502575879       -0.1628375620
 C         -7.0567486058        1.3412761940        0.6668310383
 C         -5.9640226923        0.5040239371        0.7911215063
 C         -4.8008034513        0.7730039965        0.0724812346
 N         -3.6901283498       -0.0755050615        0.1603716715
 C         -3.7015911587       -1.4505081224       -0.0385293780
 C         -4.7699706813       -2.3005553470       -0.2614452083
 C         -4.4955934648       -3.6514672936       -0.4406315405
 C         -3.1935402179       -4.1341177284       -0.4096309983
 C         -2.1175881956       -3.2818174470       -0.2208055929
 C         -2.3688488037       -1.9276419819       -0.0408517095
 C         -1.5228087405       -0.7833902115        0.1487032518
 C         -0.1538687663       -0.6020272124        0.1537604117
 C          0.3737514164        0.6778469138        0.3603000204
 C          1.8036534265        0.9055667290        0.2434215782
 C          2.2565181184        2.1618247046       -0.2353227595
 N          3.5447898590        2.4403613102       -0.4646737209
 C          4.4123609271        1.4888615079       -0.2885912804
 O          5.7424248882        1.6452496531       -0.4548219758
 C          6.2976582889        0.4227373691       -0.2197951921
 N          7.5706668351        0.1885148415       -0.3327675887
 C          7.9852028708       -1.0676807393       -0.0903996310
 C          7.1172519350       -2.0852700305        0.2838388870
 C          5.7625029756       -1.8447931041        0.4145161691
 C          5.3099323771       -0.5348599790        0.1554865260
 C          4.0840463522        0.1511214653        0.1144226452
 C          2.7398534694       -0.1062967513        0.4375877852
 C         -0.5093628539        1.7525180139        0.6150352323
 C         -1.8779630580        1.5990226456        0.5756777446
 C         -2.3900410813        0.3373431120        0.2914457209
 C         -4.7449587873        1.8914238751       -0.7593764001
 C         -5.8408985999        2.7237137928       -0.8714199373
 H         -7.8576959061        3.0993432680       -0.2577626508
 H         -7.9558775739        1.1302584971        1.2259155613
 H         -5.9953393780       -0.3440145657        1.4586185726
 H         -5.7836945865       -1.9341162319       -0.3093265553
 H         -5.3129498613       -4.3355732163       -0.6093038773
 H         -3.0181235222       -5.1906845913       -0.5453137997
 H         -1.1059753964       -3.6569607554       -0.2150359651
 H          0.5000777319       -1.4396261082       -0.0291650759
 H          1.5668253443        2.9280570833       -0.5443171039
 H          9.0436257327       -1.2328398871       -0.2094140188
 H          7.5172123937       -3.0705529634        0.4674454771
 H          5.0685621728       -2.6230240816        0.6900669859
 H          2.4666028785       -1.0549406820        0.8706130074
 H         -0.0977991499        2.7190044474        0.8569405464
 H         -2.5330707032        2.4359806401        0.7651156620
 H         -3.8489464146        2.0819212036       -1.3316423842
 H         -5.7929491160        3.5831550899       -1.5230523721
