  99
  -149.184902162600       0.262921698264086      !
 C         -0.1151717632       -5.8770900852       -0.1880393345
 C         -0.0904586248       -4.3848797027       -0.0902235053
 N          1.0784163169       -3.7916732012       -0.1955686444
 C          1.1043270154       -2.4118423995       -0.1849666668
 N          2.2976519893       -1.6962887134       -0.3570365899
 C          3.3166869809       -1.7705721934        0.5791506718
 C          3.4819613340       -2.9285884148        1.3418914384
 C          4.5082892432       -3.0133684047        2.2592316041
 C          5.3704278477       -1.9423251359        2.4368581709
 C          5.1976823805       -0.7850321330        1.6956411696
 C          4.1787836726       -0.6796495270        0.7621275817
 C          3.9238845537        0.6071931698        0.0042146992
 C          2.8572402590        1.4523072208        0.7063067222
 C          2.0878584189        0.9583835051        1.7511949579
 C          1.0649278316        1.7186213730        2.2939075430
 C          0.7957897688        2.9838773034        1.8053084380
 C          1.5653707627        3.4900716967        0.7698399319
 C          2.5796481659        2.7277056781        0.2219011195
 C          5.2421565014        1.3387060875       -0.1599660647
 C          6.1663450064        0.8524823298       -1.0789080790
 C          7.4017996043        1.4554178449       -1.2231117830
 C          7.7380036297        2.5483876757       -0.4413030867
 C          6.8335145331        3.0236421307        0.4917116858
 C          5.5955388756        2.4200647553        0.6360443604
 C          3.2753135865        0.2905014112       -1.3306508794
 C          3.4149936305        1.1163033942       -2.4333597077
 C          2.7023758319        0.8826875760       -3.5973385428
 C          1.8162071908       -0.1870107538       -3.6624335329
 C          1.6628976163       -1.0212358098       -2.5796782911
 C          2.3964616672       -0.8038769341       -1.4071998842
 C         -0.0555102245       -1.6898637089        0.0474497054
 C         -1.2360554167       -2.4000631208        0.2203066248
 N         -2.3977855377       -1.6800964802        0.4846535089
 C         -2.3760885148       -0.7310693288        1.4963447438
 C         -1.6270426854       -0.9498621443        2.6568583244
 C         -1.6735322962       -0.0419128978        3.6910286472
 C         -2.4519642879        1.1057721399        3.5807864607
 C         -3.1829743365        1.3358771180        2.4252901305
 C         -3.1630133699        0.4273752895        1.3830310009
 C         -3.8723069718        0.6465458676        0.0641145237
 C         -4.9745318071        1.6733237426        0.2176039409
 C         -4.9526877101        2.8974371183       -0.4339809853
 C         -5.9776688881        3.8105167396       -0.2450643209
 C         -7.0329054363        3.5135182524        0.5983908453
 C         -7.0577784864        2.2957010554        1.2595515097
 C         -6.0358730405        1.3851225026        1.0719232625
 C         -2.8414223898        1.0553857653       -0.9941562925
 C         -1.5858909566        1.5371711487       -0.6465995870
 C         -0.6541335302        1.8465682915       -1.6232247576
 C         -0.9693881505        1.6963576038       -2.9612214043
 C         -2.2276456950        1.2407920738       -3.3176748618
 C         -3.1535004422        0.9187818176       -2.3425869486
 C         -4.4127675000       -0.6995855146       -0.3864161631
 C         -5.6263595435       -0.8560098163       -1.0330077387
 C         -6.0004250730       -2.0865549410       -1.5508330885
 C         -5.1433521182       -3.1723262121       -1.4484211441
 C         -3.9291939656       -3.0389319021       -0.8076918512
 C         -3.5681585385       -1.8121534834       -0.2508480004
 N         -1.2425850762       -3.7738910440        0.0949554426
 H         -0.7657146721       -6.2898366863        0.5788057304
 H          0.8914558311       -6.2704885946       -0.0835742400
 H         -0.5106452230       -6.1682427765       -1.1600604702
 H          2.8028597576       -3.7515409480        1.1876222144
 H          4.6340535472       -3.9138936831        2.8411269672
 H          6.1686575121       -2.0009456027        3.1611144909
 H          5.8580033795        0.0528104399        1.8566435125
 H          2.2789103963       -0.0229976169        2.1572516889
 H          0.4682758613        1.3126734460        3.0960922112
 H         -0.0068230649        3.5711058818        2.2266648468
 H          1.3674052140        4.4787901692        0.3811242733
 H          3.1609660507        3.1278020712       -0.5944368528
 H          5.9111301007       -0.0049516226       -1.6841686243
 H          8.1062226194        1.0698808075       -1.9455129733
 H          8.7022199117        3.0212339623       -0.5535173914
 H          7.0928569942        3.8660265850        1.1165243754
 H          4.9048569049        2.7919904845        1.3777002176
 H          4.0965331991        1.9522256262       -2.3889524177
 H          2.8322841965        1.5342885101       -4.4481106548
 H          1.2541735713       -0.3720338253       -4.5652655867
 H          0.9903253699       -1.8632948327       -2.6267733749
 H         -0.0399432719       -0.6111633547        0.0887087267
 H         -1.0312147673       -1.8463166171        2.7357756127
 H         -1.1089566185       -0.2274033066        4.5933588697
 H         -2.4809082990        1.8209490232        4.3887053411
 H         -3.7693759643        2.2373971359        2.3349214205
 H         -4.1328021901        3.1439094144       -1.0910067106
 H         -5.9477349965        4.7600908892       -0.7595086109
 H         -7.8302175086        4.2269979603        0.7442893532
 H         -7.8752673087        2.0573801602        1.9242690905
 H         -6.0533111390        0.4381453408        1.5914810882
 H         -1.3227513027        1.6787208472        0.3912935188
 H          0.3234044026        2.2013444573       -1.3333393645
 H         -0.2389171907        1.9339006083       -3.7192877927
 H         -2.4887135628        1.1295441333       -4.3602484325
 H         -4.1285795237        0.5570961127       -2.6319340807
 H         -6.2824203953       -0.0064026746       -1.1492605301
 H         -6.9497972822       -2.1893764921       -2.0545415257
 H         -5.4244425432       -4.1247928801       -1.8717862785
 H         -3.2470442394       -3.8689162078       -0.7125615159
  99
  -149.184901117200       0.262631005404822      !
 C         -0.1125598883       -5.8892641647       -0.1046930191
 C         -0.0906185809       -4.3957368916       -0.0286732089
 N          1.0778684959       -3.8026981538       -0.1383144595
 C          1.1026349544       -2.4227074441       -0.1470912580
 N          2.2923152580       -1.7069424678       -0.3352498998
 C          3.3309679901       -1.7834485316        0.5790599198
 C          3.5152167036       -2.9440666180        1.3333714851
 C          4.5643822508       -3.0316626820        2.2242590919
 C          5.4308413289       -1.9612172586        2.3836360744
 C          5.2381667499       -0.8003959802        1.6526039446
 C          4.1954472448       -0.6917643392        0.7465647624
 C          3.9161063570        0.5991030335        0.0045598231
 C          2.8550094606        1.4284555177        0.7334897066
 C          2.1167353325        0.9231773104        1.7952587366
 C          1.0967194262        1.6691307756        2.3627340293
 C          0.7999874844        2.9315202645        1.8831500109
 C          1.5396032088        3.4498650893        0.8320779488
 C          2.5503416215        2.7013358524        0.2589089869
 C          5.2234800879        1.3449945737       -0.1805785706
 C          6.1362637328        0.8695889891       -1.1166406511
 C          7.3597501690        1.4897148062       -1.2870413667
 C          7.6958579367        2.5892320264       -0.5143637981
 C          6.8039437639        3.0529601004        0.4363439199
 C          5.5776446493        2.4323706289        0.6066516966
 C          3.2471194456        0.2853710400       -1.3210121280
 C          3.3662334946        1.1144365324       -2.4236824831
 C          2.6396748745        0.8780382584       -3.5784378286
 C          1.7601269923       -0.1976749543       -3.6336670674
 C          1.6260267797       -1.0339968333       -2.5500693082
 C          2.3731584312       -0.8134157938       -1.3867562838
 C         -0.0592941654       -1.6996611839        0.0731057737
 C         -1.2394201404       -2.4087715577        0.2492994265
 N         -2.4029454572       -1.6840176858        0.4967227230
 C         -2.3888606958       -0.7304582004        1.5037533929
 C         -1.6545409758       -0.9486651971        2.6738289647
 C         -1.7056764065       -0.0351407718        3.7027149077
 C         -2.4737907192        1.1178915003        3.5774943714
 C         -3.1905949404        1.3468777801        2.4130359987
 C         -3.1661911616        0.4327932007        1.3755774214
 C         -3.8600814501        0.6536091644        0.0488642616
 C         -4.9660901472        1.6779663051        0.1949822678
 C         -4.9336220299        2.9100529811       -0.4409951433
 C         -5.9616725162        3.8207614593       -0.2578690057
 C         -7.0304682248        3.5135969015        0.5645608025
 C         -7.0656824453        2.2880000329        1.2106422809
 C         -6.0407665773        1.3796350451        1.0286818849
 C         -2.8210349973        1.0716088538       -0.9977962168
 C         -1.5633375258        1.5385314879       -0.6383467036
 C         -0.6289256727        1.8640062033       -1.6072717110
 C         -0.9434075413        1.7454372629       -2.9484398202
 C         -2.2025163519        1.3017832649       -3.3162220363
 C         -3.1308415169        0.9630018179       -2.3493369311
 C         -4.3936245347       -0.6904654418       -0.4155892377
 C         -5.5922188985       -0.8397102736       -1.0915718583
 C         -5.9595346697       -2.0668500065       -1.6219546509
 C         -5.1109809880       -3.1573567467       -1.5011812918
 C         -3.9123269353       -3.0315348973       -0.8305000138
 C         -3.5582011335       -1.8074200954       -0.2631421734
 N         -1.2449540086       -3.7839342446        0.1414879510
 H         -0.5220551015       -6.1957959133       -1.0659556917
 H         -0.7502491201       -6.2927504531        0.6777380582
 H          0.8965556668       -6.2783422483       -0.0090599395
 H          2.8323102343       -3.7663770343        1.1929545175
 H          4.7047989402       -3.9341060878        2.7997242227
 H          6.2475925033       -2.0226595712        3.0865275589
 H          5.9012021741        0.0376419492        1.8008335583
 H          2.3305985506       -0.0556405283        2.1957681716
 H          0.5234803077        1.2541355725        3.1772480961
 H         -0.0012847195        3.5068469580        2.3231469263
 H          1.3205657253        4.4369891857        0.4507709549
 H          3.1081540300        3.1106554369       -0.5690769475
 H          5.8809348190        0.0075424488       -1.7152515406
 H          8.0551128436        1.1122794485       -2.0223489609
 H          8.6504680003        3.0759701373       -0.6474464016
 H          7.0634916058        3.9007227400        1.0536558837
 H          4.8973282032        2.7956389796        1.3620360708
 H          4.0430976758        1.9546139471       -2.3871896448
 H          2.7542763739        1.5316496636       -4.4297568997
 H          1.1868868654       -0.3847500057       -4.5289792895
 H          0.9583401385       -1.8803169017       -2.5900355628
 H         -0.0452461972       -0.6205260781        0.1011976311
 H         -1.0668524662       -1.8494519468        2.7637306958
 H         -1.1535220970       -0.2205744414        4.6127227024
 H         -2.5058094243        1.8378988622        4.3809138420
 H         -3.7690293109        2.2522897329        2.3112016969
 H         -4.1029089099        3.1649229575       -1.0810598008
 H         -5.9235779908        4.7762833748       -0.7606760642
 H         -7.8304912927        4.2250374478        0.7054451052
 H         -7.8938610950        2.0416731515        1.8588777929
 H         -6.0656796247        0.4271030117        1.5377012256
 H         -1.3009694445        1.6581054843        0.4025219464
 H          0.3496392621        2.2082648403       -1.3087397567
 H         -0.2117762170        1.9984793867       -3.7002386110
 H         -2.4623377464        1.2133001488       -4.3612245188
 H         -4.1064881027        0.6105855900       -2.6476195699
 H         -6.2420970149        0.0129094020       -1.2193852741
 H         -6.8967082538       -2.1635234004       -2.1491075802
 H         -5.3864436435       -4.1073694409       -1.9337695437
 H         -3.2373650108       -3.8654369432       -0.7199364019
  99
  -149.184883319800       0.257731129775307      !
 C         -0.0503903405       -5.8831371815        0.0997596237
 C         -0.0694355795       -4.3877358474        0.1189125389
 N          1.0823784102       -3.7672771508       -0.0014154472
 C          1.0754455370       -2.3864304568       -0.0371451315
 N          2.2501347506       -1.6539477113       -0.2544586547
 C          3.3003131505       -1.7061103218        0.6481353920
 C          3.4644797631       -2.8326292457        1.4590157346
 C          4.5089227537       -2.8990265791        2.3562246122
 C          5.3927941807       -1.8373163710        2.4699891407
 C          5.2260089593       -0.7141115433        1.6779001771
 C          4.1909759238       -0.6289604454        0.7593778317
 C          3.9731017958        0.6311964983       -0.0549878956
 C          3.0662979828        1.6096192391        0.6940310196
 C          2.2211435414        1.1819365354        1.7112093281
 C          1.3362685907        2.0613568939        2.3122852629
 C          1.2860025644        3.3853707404        1.9142313597
 C          2.1224337375        3.8204908214        0.8981984498
 C          2.9936898979        2.9384930274        0.2864249141
 C          5.3391918411        1.2013552395       -0.3927888370
 C          6.0708771346        0.6187291907       -1.4219066931
 C          7.3448257780        1.0636099959       -1.7227672243
 C          7.9146971438        2.0906881661       -0.9892029755
 C          7.2043754929        2.6583949074        0.0538453353
 C          5.9280605054        2.2133902478        0.3546533743
 C          3.1764581415        0.3207605954       -1.3077641481
 C          3.2261852882        1.1526934903       -2.4147605377
 C          2.4279526463        0.9252596671       -3.5215022175
 C          1.5458785810       -0.1505807676       -3.5251644764
 C          1.4765488755       -0.9863729134       -2.4362417946
 C          2.2898160281       -0.7690836247       -1.3155521198
 C         -0.1080182847       -1.6875453407        0.1567672440
 C         -1.2693671858       -2.4239492000        0.3246733973
 N         -2.4647977267       -1.7228409560        0.5056265680
 C         -2.5625143824       -0.8233491949        1.5521866371
 C         -1.8770819073       -1.0535399972        2.7496761313
 C         -2.0375061231       -0.1957720481        3.8150339682
 C         -2.8814047183        0.9037670004        3.7074652281
 C         -3.5445809450        1.1508499540        2.5149353522
 C         -3.3926807191        0.3039588120        1.4321747324
 C         -3.9614609620        0.5997612469        0.0617669420
 C         -5.1422191123        1.5424673889        0.1649488236
 C         -5.1364738785        2.8178159540       -0.3791718554
 C         -6.2464504209        3.6378092559       -0.2523679225
 C         -7.3710593407        3.1946754337        0.4200141610
 C         -7.3802091412        1.9248437584        0.9752980907
 C         -6.2735781713        1.1076026122        0.8506444719
 C         -2.8331499320        1.1642131555       -0.8121993238
 C         -1.6704466866        1.6857163930       -0.2578450632
 C         -0.6424812372        2.1391377167       -1.0672061946
 C         -0.7659329920        2.0926386787       -2.4435996616
 C         -1.9298815495        1.5962700966       -3.0052350147
 C         -2.9522760422        1.1330692176       -2.1973006940
 C         -4.3667577751       -0.7185124009       -0.5723267803
 C         -5.4582541969       -0.8463085030       -1.4152868505
 C         -5.7057929105       -2.0365391565       -2.0806534057
 C         -4.8446174988       -3.1116317186       -1.9221812439
 C         -3.7529845962       -3.0067559879       -1.0855289434
 C         -3.5184540697       -1.8193929166       -0.3916151838
 N         -1.2422935805       -3.8012001168        0.2552242761
 H          0.9746324197       -6.2371382899        0.0465421913
 H         -0.6059559046       -6.2448837079       -0.7632895485
 H         -0.5331838374       -6.2698270136        0.9945740378
 H          2.7685330592       -3.6493706014        1.3569982156
 H          4.6307697100       -3.7765987734        2.9729081131
 H          6.2046377589       -1.8775188780        3.1801349670
 H          5.9082977415        0.1143749115        1.7842644267
 H          2.2472863456        0.1579525783        2.0500102134
 H          0.6802295727        1.7058034207        3.0939159822
 H          0.5967905514        4.0715559811        2.3835760881
 H          2.0875207095        4.8505019524        0.5731347217
 H          3.6246916369        3.2907357596       -0.5143873728
 H          5.6362784234       -0.1895257083       -1.9912721634
 H          7.8968388755        0.6036170358       -2.5292805209
 H          8.9092036632        2.4398032307       -1.2235808113
 H          7.6466614940        3.4493918285        0.6421023305
 H          5.3910203268        2.6560189604        1.1802732838
 H          3.9093282780        1.9879782439       -2.4183951227
 H          2.4907904639        1.5805148879       -4.3770794496
 H          0.9188468331       -0.3355404028       -4.3840874753
 H          0.8063905618       -1.8314657951       -2.4404144533
 H         -0.1242962765       -0.6076167197        0.1627157878
 H         -1.2370753743       -1.9187365905        2.8292412699
 H         -1.5111375081       -0.3841048745        4.7390278127
 H         -3.0093546844        1.5735759749        4.5439828181
 H         -4.1729325050        2.0235466051        2.4226374965
 H         -4.2643619623        3.1755100966       -0.9048349193
 H         -6.2302175112        4.6282891344       -0.6835020411
 H         -8.2359165873        3.8343336152        0.5142386888
 H         -8.2521876826        1.5724047056        1.5066715256
 H         -6.2792574260        0.1188923488        1.2859895166
 H         -1.5531558719        1.7437923960        0.8137785309
 H          0.2591335664        2.5252186875       -0.6171297277
 H          0.0400865384        2.4398940826       -3.0711099501
 H         -2.0418574101        1.5651354445       -4.0794051330
 H         -3.8524051339        0.7445478681       -2.6487822062
 H         -6.1161714230       -0.0036796699       -1.5663545515
 H         -6.5592000102       -2.1159253097       -2.7371699067
 H         -5.0261689226       -4.0334773977       -2.4538986761
 H         -3.0753113938       -3.8329206487       -0.9402828458
  99
  -149.184719523500       0.216716166555785      !
 C         -0.1290823232       -5.8604142263        0.1242921891
 C         -0.0969942209       -4.3650208635        0.1205963298
 N          1.0749659747       -3.7869173215       -0.0182563704
 C          1.1137312080       -2.4082586645       -0.0843423522
 N          2.3075390406       -1.7163450399       -0.3096208141
 C          3.3993136450       -1.8387864764        0.5371857604
 C          3.6208175582       -3.0257124523        1.2377424608
 C          4.7316281992       -3.1547303914        2.0453864054
 C          5.6229065339       -2.1009230341        2.1759202970
 C          5.3921579442       -0.9118816993        1.5025305584
 C          4.2870677785       -0.7618536642        0.6812381739
 C          3.9540791081        0.5546096727        0.0105577864
 C          2.8872297057        1.3116434760        0.8071446979
 C          2.2912453620        0.7844947881        1.9443317373
 C          1.2568146941        1.4578836378        2.5730524871
 C          0.8045426924        2.6678360414        2.0807824897
 C          1.4095960591        3.2136964566        0.9601242639
 C          2.4359067677        2.5377660089        0.3272174526
 C          5.2272896795        1.3549878243       -0.1761231250
 C          6.1570689959        0.9148865184       -1.1136241911
 C          7.3518795372        1.5861619735       -1.2909258306
 C          7.6413214557        2.7040034011       -0.5251987140
 C          6.7308125658        3.1362564895        0.4224740691
 C          5.5325066979        2.4642847564        0.5997619678
 C          3.2604587044        0.2689726313       -1.3086387133
 C          3.3671810598        1.1045625678       -2.4066935257
 C          2.6106629784        0.8852630846       -3.5464460075
 C          1.7164834171       -0.1785304415       -3.5883507048
 C          1.5955769184       -1.0216314800       -2.5080895444
 C          2.3708559109       -0.8177573806       -1.3603837050
 C         -0.0433395851       -1.6667055517        0.1079247522
 C         -1.2294773976       -2.3576110200        0.3093809872
 N         -2.3921957740       -1.6159802389        0.5133039276
 C         -2.3952986303       -0.6376917891        1.4957081406
 C         -1.6697855572       -0.8208506476        2.6774115572
 C         -1.7397629159        0.1151017153        3.6845611549
 C         -2.5129845178        1.2596522208        3.5241803637
 C         -3.2214272182        1.4542431563        2.3485394027
 C         -3.1828632030        0.5148426795        1.3342923944
 C         -3.8804169417        0.6995727330        0.0044869627
 C         -5.0156681844        1.6933570455        0.1428510808
 C         -5.0145611948        2.9272820149       -0.4903515221
 C         -6.0708507037        3.8066131147       -0.3140229066
 C         -7.1367765258        3.4661360505        0.4989951204
 C         -7.1396210500        2.2397251616        1.1443858415
 C         -6.0863312262        1.3630525809        0.9696830202
 C         -2.8574667799        1.1275487154       -1.0532409430
 C         -1.5813237184        1.5576673244       -0.7142926215
 C         -0.6631130938        1.8827873988       -1.6989108714
 C         -1.0125957488        1.8032563233       -3.0342091318
 C         -2.2905504817        1.3976344980       -3.3809488993
 C         -3.2017220235        1.0559973768       -2.3991199421
 C         -4.3807930060       -0.6616378680       -0.4475389766
 C         -5.5650421046       -0.8377909666       -1.1426545903
 C         -5.9072921060       -2.0771285099       -1.6606265480
 C         -5.0478409146       -3.1545665312       -1.5058285681
 C         -3.8637679495       -3.0021795952       -0.8154790105
 C         -3.5336150896       -1.7644666238       -0.2622979533
 N         -1.2466027008       -3.7364530741        0.2595385762
 H          0.8795703572       -6.2496823062        0.0241746059
 H         -0.7419956617       -6.2151710854       -0.7018419254
 H         -0.5750199704       -6.2178533422        1.0500763545
 H          2.9161111521       -3.8335138596        1.1217373329
 H          4.9013436087       -4.0777677666        2.5789303842
 H          6.4878219084       -2.1959257958        2.8147477594
 H          6.0733865498       -0.0852666811        1.6324890987
 H          2.6284088033       -0.1549745748        2.3541625089
 H          0.7965544387        1.0280451645        3.4488284888
 H         -0.0113429544        3.1819990218        2.5668955098
 H          1.0717074608        4.1636216396        0.5710832158
 H          2.8917573536        2.9662743165       -0.5524538736
 H          5.9376400871        0.0379297331       -1.7049458689
 H          8.0624641174        1.2340159490       -2.0243367609
 H          8.5748400337        3.2292455816       -0.6616118735
 H          6.9540263028        3.9993778978        1.0327137955
 H          4.8370003251        2.8044760032        1.3519276690
 H          4.0549548586        1.9364382906       -2.3785176718
 H          2.7132051907        1.5440380559       -4.3954138179
 H          1.1206076430       -0.3518117429       -4.4715575227
 H          0.9160676717       -1.8588876130       -2.5396249136
 H         -0.0198316352       -0.5875100927        0.0946928987
 H         -1.0755965409       -1.7142505765        2.7939743672
 H         -1.2003019619       -0.0468217937        4.6063227326
 H         -2.5594984950        1.9976302626        4.3104353267
 H         -3.8074150312        2.3514916623        2.2200741084
 H         -4.1862353753        3.2086086526       -1.1223281257
 H         -6.0577200409        4.7634922993       -0.8154866901
 H         -7.9597981860        4.1522445032        0.6329088102
 H         -7.9651897847        1.9675049103        1.7856630769
 H         -6.0875408043        0.4089467226        1.4763983295
 H         -1.2908133899        1.6483122436        0.3221836588
 H          0.3311652517        2.1942280178       -1.4168583331
 H         -0.2939998397        2.0575687648       -3.7982537995
 H         -2.5777663147        1.3393636912       -4.4209508512
 H         -4.1919646704        0.7315535789       -2.6805771187
 H         -6.2253695761        0.0032336057       -1.2927422390
 H         -6.8334595529       -2.1940395935       -2.2029606449
 H         -5.3033087560       -4.1152761419       -1.9267943762
 H         -3.1831056950       -3.8270224342       -0.6759131510
