  99
       -149.82787086
 C         -0.0244554080       -5.8613827823       -0.1419841922
 C         -0.0188664785       -4.3670305798       -0.0777590110
 N          1.1416668310       -3.7622109636       -0.1974676035
 C          1.1555565264       -2.3814992233       -0.2009258444
 N          2.3353079096       -1.6586856274       -0.4019212921
 C          3.4350403901       -1.7997987912        0.4315777259
 C          3.6824663896       -3.0131472120        1.0759401479
 C          4.8010708670       -3.1587070533        1.8698992184
 C          5.6744590002       -2.0960440070        2.0427185803
 C          5.4179447037       -0.8819834549        1.4256486175
 C          4.3045912719       -0.7147155505        0.6189767817
 C          3.9436193672        0.6246510743        0.0110576403
 C          2.8691988167        1.3253830846        0.8479648424
 C          2.2906956553        0.7364693588        1.9636673813
 C          1.2489811513        1.3618666127        2.6288728366
 C          0.7718945569        2.5845964678        2.1950703289
 C          1.3592508131        3.1916118790        1.0966747046
 C          2.3928622109        2.5637200680        0.4272226715
 C          5.2011123179        1.4554754610       -0.1469373749
 C          6.1318816189        1.0752317762       -1.1093147613
 C          7.3133401261        1.7752701904       -1.2633305136
 C          7.5883602672        2.8621975496       -0.4493053687
 C          6.6770687390        3.2344871823        0.5227548428
 C          5.4921277665        2.5336910212        0.6767470328
 C          3.2458503971        0.3868031678       -1.3154128744
 C          3.3299980628        1.2732037275       -2.3749117146
 C          2.5694378514        1.0923291462       -3.5187124583
 C          1.6939526011        0.0156129586       -3.6034330910
 C          1.5956304622       -0.8777366642       -2.5619624358
 C          2.3752774436       -0.7122926341       -1.4110368450
 C         -0.0130691212       -1.6703976712        0.0321603141
 C         -1.1853382053       -2.3909839239        0.2093566395
 N         -2.3595293483       -1.6804360252        0.4541251981
 C         -2.3729984060       -0.7480057230        1.4800726980
 C         -1.6360176958       -0.9715727340        2.6476413581
 C         -1.7154247812       -0.0837561024        3.6967982157
 C         -2.5098978065        1.0527934049        3.5935638560
 C         -3.2299707060        1.2878107102        2.4324651321
 C         -3.1819604258        0.3963070179        1.3762579495
 C         -3.8920621506        0.6286753804        0.0606404588
 C         -5.0437177238        1.5945485320        0.2512336601
 C         -5.0689287358        2.8557872804       -0.3250985499
 C         -6.1393426872        3.7070406545       -0.1022888645
 C         -7.1932985959        3.3108432528        0.7010325924
 C         -7.1698715946        2.0565245860        1.2898931875
 C         -6.1024923383        1.2077986880        1.0688474555
 C         -2.8843534791        1.1226113408       -0.9828772929
 C         -1.6136577417        1.5597905544       -0.6326833836
 C         -0.7083320450        1.9457863394       -1.6071984161
 C         -1.0657875643        1.9207250624       -2.9425194436
 C         -2.3387833220        1.5083347356       -3.2993693423
 C         -3.2367986043        1.1060950862       -2.3284370998
 C         -4.3714520182       -0.7193800623       -0.4497807733
 C         -5.5572844780       -0.8850611944       -1.1447719227
 C         -5.8812004656       -2.1055464017       -1.7165077449
 C         -5.0017408343       -3.1732576125       -1.6163329875
 C         -3.8156975431       -3.0311008819       -0.9271843446
 C         -3.5035987274       -1.8140557344       -0.3202749358
 N         -1.1784085668       -3.7662223127        0.0968652783
 H          0.9901956728       -6.2274787488       -0.2660419434
 H         -0.6368213956       -6.1892161991       -0.9795675689
 H         -0.4574380072       -6.2684838489        0.7693303627
 H          2.9913649500       -3.8273995454        0.9276722822
 H          4.9908659559       -4.1018266443        2.3597703799
 H          6.5454168743       -2.2043862599        2.6711284739
 H          6.0853383090       -0.0499965943        1.5888591043
 H          2.6473242206       -0.2144274447        2.3281594483
 H          0.8026062674        0.8844668615        3.4870238499
 H         -0.0495050648        3.0613715529        2.7091977519
 H          1.0018592001        4.1519944191        0.7534311950
 H          2.8348242191        3.0398888328       -0.4348525335
 H          5.9238318074        0.2222379278       -1.7385844544
 H          8.0248412155        1.4696582270       -2.0164549312
 H          8.5114481292        3.4098155585       -0.5674922934
 H          6.8892813648        4.0728708209        1.1702686553
 H          4.7960463793        2.8267818558        1.4479674332
 H          4.0031226976        2.1151871125       -2.3131776024
 H          2.6542972935        1.7907340252       -4.3374158302
 H          1.0950054679       -0.1280620385       -4.4898689079
 H          0.9308403465       -1.7247926150       -2.6273493341
 H         -0.0087598766       -0.5914673041        0.0679546949
 H         -1.0252997930       -1.8585040261        2.7196652077
 H         -1.1666766958       -0.2776526679        4.6068319570
 H         -2.5639040854        1.7533305306        4.4128947199
 H         -3.8326411930        2.1792743876        2.3486753573
 H         -4.2502023279        3.1804022875       -0.9487771002
 H         -6.1466970015        4.6857958320       -0.5597168163
 H         -8.0273671775        3.9752313078        0.8712102992
 H         -7.9859368145        1.7406321655        1.9232600868
 H         -6.0832310487        0.2317895422        1.5315730832
 H         -1.3174739796        1.6084670669        0.4050071330
 H          0.2822482806        2.2619399993       -1.3174816514
 H         -0.3572270651        2.2223829513       -3.6986700170
 H         -2.6322711171        1.4922131447       -4.3391277229
 H         -4.2231096083        0.7769993882       -2.6181767154
 H         -6.2334389283       -0.0501102157       -1.2522569244
 H         -6.8089661327       -2.2143514560       -2.2577959683
 H         -5.2431358242       -4.1182927588       -2.0790164827
 H         -3.1195728229       -3.8490453481       -0.8296001907
