  90
       -140.26119132
 N         -2.0811637483       -7.9880333277        0.0905765426
 C         -1.1558200349       -7.2957193909        0.0536468798
 C          0.0009569168       -6.5234533099        0.0119441555
 C          1.1573016546       -7.2974215994        0.0026148646
 N          2.0831739894       -7.9899221744       -0.0029879202
 C          0.0014843469       -5.1040543608       -0.0151364298
 C         -1.1485156037       -4.2555919642       -0.0178840096
 C         -2.5183672973       -4.5319846022       -0.0011519750
 C         -3.4145338362       -3.4896142775        0.0052611257
 C         -2.9985275957       -2.1419315544       -0.0246116346
 C         -3.9778348284       -1.0666604022       -0.0251663047
 C         -5.1900426989       -1.1848637046        0.6679028191
 C         -6.1113560157       -0.1648131389        0.6784820943
 C         -5.8654815714        1.0238853314       -0.0184002777
 N         -6.7935616481        2.0589901602       -0.0122244738
 C         -8.1649490376        1.7815466668        0.0540427959
 C         -9.0102980351        2.5932113150        0.8113612351
 C        -10.3626377983        2.3196933450        0.8714524424
 C        -10.8902259662        1.2373129083        0.1852078835
 C        -10.0542990093        0.4286594990       -0.5685252284
 C         -8.7011488346        0.6959079169       -0.6395616941
 C         -6.3640802870        3.3914382317       -0.0621671722
 C         -7.0757217654        4.3320534030       -0.8076466392
 C         -6.6524561160        5.6460156359       -0.8508737281
 C         -5.5181359140        6.0405394168       -0.1591912502
 C         -4.8083156584        5.1096734713        0.5825951071
 C         -5.2252513135        3.7940490437        0.6363941585
 C         -4.6617742271        1.1487646688       -0.7219472832
 C         -3.7410552304        0.1284772621       -0.7178181742
 C         -1.6289341732       -1.8579349971       -0.0547164528
 C         -0.7180388837       -2.8899044605       -0.0413971920
 C          0.7208896934       -2.8900854638       -0.0505584793
 C          1.6314580552       -1.8580791491       -0.0666471572
 C          3.0017507057       -2.1414396345       -0.0537539986
 C          3.9802063970       -1.0657600261       -0.0466721698
 C          5.2062227797       -1.2014214251        0.6191089100
 C          6.1264174798       -0.1807371851        0.6412654067
 C          5.8640373576        1.0286321317       -0.0124776356
 N          6.7912677103        2.0647926665        0.0084870457
 C          6.3608217091        3.3971858749        0.0290396168
 C          5.2382442753        3.7658675204        0.7715130533
 C          4.8221875062        5.0826781823        0.7910647319
 C          5.5165115216        6.0481801760        0.0794967336
 C          6.6335631970        5.6870084558       -0.6571179437
 C          7.0557834432        4.3723655082       -0.6873116721
 C          8.1633022925        1.7833567780        0.0221695398
 C          9.0337971956        2.5597717976        0.7878305006
 C         10.3863794626        2.2807104003        0.7953532378
 C         10.8892426118        1.2276986741        0.0476850522
 C         10.0281217736        0.4538267460       -0.7142034198
 C          8.6744405615        0.7268549263       -0.7326608466
 C          4.6465264377        1.1725177065       -0.6877362303
 C          3.7289828763        0.1493896928       -0.6989933389
 C          3.4174191922       -3.4900481132       -0.0420973090
 C          2.5214111244       -4.5323236986       -0.0422188158
 C          1.1512023806       -4.2561799747       -0.0372684939
 H         -2.8726513341       -5.5499623239        0.0040354009
 H         -4.4717696980       -3.7089024170       -0.0049786169
 H         -5.3888836285       -2.0780417454        1.2402650910
 H         -7.0246466624       -0.2667738416        1.2464251737
 H         -8.5962856555        3.4285888663        1.3573771873
 H        -11.0070527048        2.9510385881        1.4644243785
 H        -11.9470407636        1.0257713825        0.2366524446
 H        -10.4592419576       -0.4116451634       -1.1120585467
 H         -8.0513099591        0.0752426478       -1.2393119450
 H         -7.9525264698        4.0211842571       -1.3570681385
 H         -7.2078779025        6.3642209909       -1.4349491893
 H         -5.1899736061        7.0677547272       -0.1970839946
 H         -3.9283811137        5.4108115675        1.1309748687
 H         -4.6815847045        3.0712323321        1.2275234251
 H         -4.4706426584        2.0485437573       -1.2887983314
 H         -2.8349999764        0.2366408686       -1.2947394295
 H         -1.2871733186       -0.8330735188       -0.0481649773
 H          1.2884671449       -0.8338549775       -0.0471082999
 H          5.4180375729       -2.1099507307        1.1617337548
 H          7.0517615141       -0.2981866168        1.1862890250
 H          4.7074711018        3.0153899158        1.3393820087
 H          3.9555844540        5.3574012785        1.3733794492
 H          5.1898616114        7.0764029734        0.0994747550
 H          7.1761760098        6.4326767247       -1.2183105944
 H          7.9193330467        4.0883662137       -1.2710364251
 H          8.6393792795        3.3716958904        1.3816192766
 H         11.0502485774        2.8843019468        1.3957262706
 H         11.9462629169        1.0113652609        0.0581693673
 H         10.4133755967       -0.3634697585       -1.3050351861
 H          8.0044549624        0.1337292680       -1.3381053820
 H          4.4423700108        2.0897794887       -1.2211107165
 H          2.8130107417        0.2728277072       -1.2567644816
 H          4.4741128192       -3.7101899206       -0.0695012842
 H          2.8758147555       -5.5503181748       -0.0480528991
