90
 energy: -140.375916960783 gnorm: 0.000195094811 xtb: 6.7.1 (edcfbbe)
N           -2.06094625470415       -8.00371685362302       -0.10044782064828
C           -1.16177897000770       -7.28656953788506       -0.08793306859788
C           -0.00362411584192       -6.48761188515740       -0.07451008292259
C            1.15389083817289       -7.28753534520961       -0.08438261312203
N            2.05255768822810       -8.00536288664692       -0.09377002988863
C           -0.00308471373555       -5.11374138023266       -0.05283834889398
C           -1.16766405987342       -4.24394163538441       -0.04043518252092
C           -2.52619183534913       -4.52346793930808       -0.04902327775856
C           -3.42675648202560       -3.47198252063676       -0.03092954511628
C           -3.00635279726401       -2.13962738978184       -0.00768687780626
C           -3.98421788775404       -1.05185758987005        0.00681244608101
C           -5.18491613642778       -1.17100942300268        0.71138857483470
C           -6.10780615999092       -0.14948501942921        0.72646441744629
C           -5.87363303224019        1.03332830915319        0.01842277333110
N           -6.81106856062044        2.06076572163769        0.02079943251579
C           -8.18208769981417        1.76821669256695        0.08907057996479
C           -9.03306710332155        2.56180999361217        0.85737199310322
C          -10.38463018640739        2.27945895820220        0.91409211889169
C          -10.90590980275689        1.20139469242756        0.21679112522819
C          -10.06373549472410        0.40849256883725       -0.54622097981245
C           -8.71225587562360        0.68825903488294       -0.61624593488182
C           -6.39949085907323        3.40024793019652       -0.04685291065172
C           -7.12561478067024        4.32211148990369       -0.80025997595434
C           -6.72545149533267        5.64357862081658       -0.85642767331652
C           -5.59558205144342        6.06446435257690       -0.17348377438301
C           -4.86945172118007        5.15159694729026        0.57454393717916
C           -5.26710670029074        3.83000389512832        0.64454552608284
C           -4.67591391514332        1.15641596349687       -0.69221731896597
C           -3.74980166541224        0.13737795426030       -0.68815362268451
C           -1.63134708897167       -1.85904132743488       -0.00175087730180
C           -0.73197142461427       -2.89780319132965       -0.01564248949163
C            0.72746892512422       -2.89838774327876       -0.01340546010810
C            1.62763259642024       -1.86033331112752        0.00239617775189
C            3.00242833136015       -2.14201279497320        0.00030553398037
C            3.98126332612129       -1.05511475958175        0.01462433220850
C            5.18084513706170       -1.17387171365878        0.72116192864707
C            6.10529305326052       -0.15371834913009        0.73420898059269
C            5.87398973434856        1.02717347444885        0.02200332517941
N            6.81355112290032        2.05266689135968        0.02128770185641
C            6.40477216248391        3.39269055274082       -0.05294643490987
C            5.27311426429045        3.82808139170978        0.63609250909047
C            4.87812895241719        5.15011548090282        0.55953780902378
C            5.60621969084223        6.05782585022818       -0.19284132996961
C            6.73538538352876        5.63134709776849       -0.87347407401369
C            7.13288419633062        4.30936895737548       -0.81074146592292
C            8.18396258935515        1.75772177127336        0.09109805480030
C            9.03649587636576        2.55361674765062        0.85531084827865
C           10.38754540759576        2.26908524557812        0.91332080171736
C           10.90679454034113        1.18651780592691        0.22150200322064
C           10.06307044495238        0.39125635653525       -0.53732450238914
C            8.71212565356990        0.67323239186912       -0.60875465160333
C            4.67701660547020        1.15015894520601       -0.68991527912666
C            3.74929009182493        0.13260860233639       -0.68374213512139
C            3.42182134960899       -3.47473383784440       -0.02022741098117
C            2.52047220710010       -4.52551069240195       -0.04028474987990
C            1.16214870366364       -4.24488754910992       -0.03641985458162
H           -2.88771685608283       -5.53958601872356       -0.07486074499882
H           -4.48320296729675       -3.69143810618122       -0.05972480723173
H           -5.37939813667792       -2.06352183449721        1.28727527592440
H           -7.01909557078293       -0.25490051179487        1.29649330243514
H           -8.62682313322635        3.39758200410338        1.40832338126171
H          -11.03341588220321        2.90082075567521        1.51406174099502
H          -11.96180917982785        0.98166169140678        0.26585564397296
H          -10.46310215116855       -0.42942505885251       -1.09890826067395
H           -8.05971051613956        0.07536971314817       -1.22099911331351
H           -8.00217512501232        3.99468276539462       -1.34016078951191
H           -7.29596264955536        6.34737473305332       -1.44477811707559
H           -5.28410564996346        7.09705445679149       -0.22295160125507
H           -3.99142205426539        5.47224313562036        1.11614374069103
H           -4.70684001790875        3.12310706776283        1.23909751500225
H           -4.48529439264907        2.05607261917648       -1.25862953639380
H           -2.84652545691994        0.24714167931166       -1.26950137780771
H           -1.28866894643998       -0.83663513234148        0.03857059745493
H            1.28565781934040       -0.83762060360494        0.04093247107739
H            5.37333139012084       -2.06496471924263        1.29991800379710
H            7.01575931375066       -0.25883966148173        1.30560791508883
H            4.71130485791601        3.12520836866473        1.23395372262546
H            4.00060942447569        5.47518376230457        1.09931453097013
H            5.29677477166913        7.09076529209792       -0.24750428706141
H            7.30740008017440        6.33109699962085       -1.46518966342405
H            8.00888266810706        3.97750652869506       -1.34884795078390
H            8.63192322546295        3.39300835739441        1.40197264592364
H           11.03753579768819        2.89235221536924        1.51000406782643
H           11.96229952106198        0.96512933851775        0.27155682536722
H           10.46077691189300       -0.45029713809981       -1.08567301044229
H            8.05847135170202        0.05852051400259       -1.21044865749686
H            4.48833783090415        2.04838675069987       -1.25923235174282
H            2.84677107307410        0.24212083065711       -1.26630903785557
H            4.47817071952413       -3.69506396226527       -0.04565564484121
H            2.88125861386854       -5.54193744609747       -0.06426156427451
