90
 energy: -140.375953843031 gnorm: 0.000077821371 xtb: 6.7.1 (edcfbbe)
N           -2.05810295446663       -8.51345691582328       -0.28092587423033
C           -1.15807299754482       -7.79802461624961       -0.24902905470735
C            0.00004947023100       -6.99970157262231       -0.21288502709715
C            1.15818423364553       -7.79805353846547       -0.24830774700951
N            2.05822121045836       -8.51345551525119       -0.28061359526119
C            0.00004720577477       -5.62692292244767       -0.15517080724449
C           -1.16523908523429       -4.75807254742646       -0.12282335514774
C           -2.52410048657597       -5.03670328675845       -0.12546592452980
C           -3.42425596392953       -3.98502444052307       -0.08833882616768
C           -3.00296051157220       -2.65333013697366       -0.05415376587304
C           -3.97662871096084       -1.56214668844105       -0.02451897573312
C           -5.17081443476718       -1.67734201945341        0.69130050934274
C           -6.08444504187423       -0.64771539760223        0.72500155730956
C           -5.84766578656880        0.53871574515184        0.02385068294942
N           -6.77264907906294        1.57693006325400        0.04759847377357
C           -8.14623527138303        1.30285579350507        0.13467561123844
C           -8.97457829752363        2.10636323385820        0.91736953965859
C          -10.32914643362017        1.84358376620689        0.99264815110864
C          -10.87594985652504        0.77542945247178        0.29966035658928
C          -10.05640441336191       -0.02719767786486       -0.47767037992312
C           -8.70204954169154        0.23286606119085       -0.56605785389676
C           -6.34459001643257        2.91152515797354       -0.02137721780491
C           -7.06590791230630        3.84416710114241       -0.76594732841207
C           -6.64826556889813        5.16014831669870       -0.82462957225153
C           -5.50605173836916        5.56465691485662       -0.15244314911711
C           -4.78491431632423        4.64104540590871        0.58720944627998
C           -5.19973154734407        3.32485640213328        0.65936624187921
C           -4.65816347973064        0.65590095935163       -0.70152393207367
C           -3.74073455473743       -0.37061490806524       -0.71505839660553
C           -1.62791279326647       -2.37360335613906       -0.05133405907553
C           -0.72946089593014       -3.41249986470291       -0.08147222923809
C            0.72953357973895       -3.41249469579467       -0.08144206812213
C            1.62797495970886       -2.37358920136383       -0.05131133859760
C            3.00302467139388       -2.65330368895415       -0.05409857020441
C            3.97668085180630       -1.56210945269126       -0.02445804574895
C            5.17084106835504       -1.67727648367876        0.69140680192034
C            6.08445302698253       -0.64763378383288        0.72512776625267
C            5.84767588925135        0.53878571689829        0.02395777124868
N            6.77263585622241        1.57702281024724        0.04773686208466
C            6.34454041321655        2.91160578188800       -0.02121507840437
C            5.19963078954471        3.32487431529186        0.65948203607145
C            4.78475824060311        4.64104587930175        0.58733265419865
C            5.50589671719632        5.56470747260261       -0.15225610976666
C            6.64816565299632        5.16026460256936       -0.82438793532238
C            7.06585915079331        3.84429886125740       -0.76572067652345
C            8.14622461731878        1.30296297625265        0.13481087821969
C            8.97456227591967        2.10645255435437        0.91752822998868
C           10.32913051982188        1.84367183014052        0.99280626959197
C           10.87594059243643        0.77554208912127        0.29978562042678
C           10.05640101725298       -0.02706328139034       -0.47757382682464
C            8.70204486827228        0.23299485118212       -0.56595143380576
C            4.65820226781771        0.65594048872093       -0.70146764946921
C            3.74079394071221       -0.37059341425197       -0.71502760935993
C            3.42433380934167       -3.98499388324460       -0.08826591326234
C            2.52418871698536       -5.03668161088369       -0.12539914440969
C            1.16532514892598       -4.75806389762792       -0.12275184085222
H           -2.88643634687658       -6.05230071150936       -0.16028804670951
H           -4.48110068802400       -4.20349546244250       -0.11128987370179
H           -5.36646410049423       -2.57305176731766        1.26185612245724
H           -6.98979193957996       -0.74947320128294        1.30508555162945
H           -8.54824649686695        2.93440105951195        1.46480680272717
H          -10.96018450965018        2.47242334678736        1.60366331444068
H          -11.93412973470004        0.57091959065390        0.36307610627539
H          -10.47605313894694       -0.85721124674704       -1.02720079199789
H           -8.06729956070946       -0.38739590485179       -1.18212347137932
H           -7.95221391010575        3.52932528660465       -1.29735965151497
H           -7.21482526240462        5.87243737432341       -1.40652378383255
H           -5.18089464039354        6.59290654287898       -0.20404671906556
H           -3.89720237792709        4.94903056625247        1.12030172593019
H           -4.64295953160714        2.60931274873085        1.24681753020675
H           -4.46681451977781        1.55748444255342       -1.26457830336920
H           -2.84345224928258       -0.26473187254681       -1.30635449323343
H           -1.28447115662372       -1.35193151279012       -0.00061993011455
H            1.28452204048877       -1.35191910929425       -0.00063296539623
H            5.36649241633468       -2.57298340923635        1.26196680202283
H            6.98978551383339       -0.74937158451221        1.30523801834913
H            4.64286269049421        2.60929538332568        1.24689391177397
H            3.89701292511297        4.94898244947870        1.12039771600665
H            5.18069778313377        6.59294426092860       -0.20385229270912
H            7.21471994041103        5.87259035725611       -1.40624261618939
H            7.95220086401387        3.52950816223583       -1.29710351077128
H            8.54822897164905        2.93448291249131        1.46497562347822
H           10.96016813452945        2.47250589566503        1.60382766579437
H           11.93412017007822        0.57103103998319        0.36320228321344
H           10.47605063144348       -0.85707041283677       -1.02711315562791
H            8.06729564061362       -0.38725839964086       -1.18202673323475
H            4.46685479211690        1.55751923658365       -1.26453067896828
H            2.84352539321145       -0.26472953634372       -1.30634820794264
H            4.48118161938218       -4.20345173058220       -0.11123024516800
H            2.88653456440311       -6.05227559940883       -0.16022785144500
