90
 energy: -140.330278612816 gnorm: 0.000050464990 xtb: 6.7.1 (edcfbbe)
N           -2.06532343515346       -8.00976426379008        0.04197536846989
C           -1.15069981887968       -7.30031278005014        0.01914937609434
C           -0.00135039613923       -6.51918567354928       -0.00658167949804
C            1.14664168180565       -7.30272248998374       -0.00425360691359
N            2.05988376554838       -8.01428949138332       -0.00083572668390
C           -0.00015474273381       -5.10329570415812       -0.02915946038559
C           -1.14982883809547       -4.25054097724464       -0.03204475480618
C           -2.51976036023261       -4.52392791783083       -0.01953588955825
C           -3.41573932748211       -3.48029357042088       -0.00887679301059
C           -2.99797037310779       -2.13355662231226       -0.02856039808536
C           -3.97854789102285       -1.05613124658060       -0.02246157636454
C           -5.18827701498671       -1.17697538508784        0.67473421635465
C           -6.11128771242389       -0.15801438696356        0.68883553270865
C           -5.86824496967179        1.03318100076576       -0.00670090873370
N           -6.80008439168757        2.06364186773141        0.00188926554193
C           -8.16940533105103        1.77665339389069        0.06018754686640
C           -9.02416459193162        2.57839220702627        0.81908222056638
C          -10.37521783172333        2.29587350757119        0.87033092827209
C          -10.89254310918551        1.21426574477452        0.17382233115760
C          -10.04742795767304        0.41564597606346       -0.58147048430425
C           -8.69526224062679        0.69115496638989       -0.64329029718729
C           -6.37898486357351        3.39807428454819       -0.04567552955268
C           -7.10250947121378        4.33842455413174       -0.78172967647870
C           -6.68742729545980        5.65523921801114       -0.82168110190712
C           -5.54990569264670        6.05365342457739       -0.13620616743067
C           -4.82842344939234        5.12323750629977        0.59609274342499
C           -5.23660225318526        3.80458392495680        0.64681996996527
C           -4.66454412460530        1.16157630738783       -0.71129988536508
C           -3.74351114742863        0.14096485929159       -0.71255474373426
C           -1.62899625923461       -1.85247152301438       -0.05517221707917
C           -0.71805590922318       -2.88652315331358       -0.04795976395639
C            0.72134957487372       -2.88778583336975       -0.05477550815903
C            1.63392548363806       -1.85524323669505       -0.06645797503528
C            3.00266950506446       -2.13853367817710       -0.05142058330066
C            3.98440828389441       -1.06219421110232       -0.04259113577251
C            5.19841159475090       -1.19108787663548        0.64577801792844
C            6.12051261295883       -0.17146028759832        0.66815610573908
C            5.87145220516179        1.02905426367322       -0.00880005435995
N            6.80037208283716        2.06222149867306        0.01293592483935
C            6.37515619917865        3.39581783501864       -0.00309483810913
C            5.23237243656390        3.78253617474387        0.70016319970654
C            4.81999697407088        5.10067892606504        0.68099427763404
C            5.53776167168916        6.05047419151216       -0.02977668157055
C            6.67573931673163        5.67182157740390       -0.72564968190861
C            7.09476205434324        4.35569303998857       -0.71761905961856
C            8.17065497189027        1.77692452921021        0.05677605313560
C            9.02851352731415        2.56213161237333        0.82922450121959
C           10.38039734546457        2.28121298701450        0.86537656950642
C           10.89539454332722        1.21776279372153        0.13980134878666
C           10.04703674705837        0.43534086372869       -0.62869733144709
C            8.69388939550358        0.70912635605057       -0.67509617098627
C            4.66480817288519        1.16475824921555       -0.70680717216772
C            3.74525331634328        0.14283659585882       -0.71739076442786
C            3.41821588957434       -3.48610998049470       -0.04127233972234
C            2.52043299840686       -4.52821600954560       -0.04671856813574
C            1.15087793166190       -4.25256990621336       -0.04485794267791
H           -2.87563054305913       -5.54331523851495       -0.01962640220065
H           -4.47282634636867       -3.70190269530910       -0.02117745246139
H           -5.38428275817104       -2.07196236026419        1.24538603503770
H           -7.02225765179466       -0.26365943186300        1.25913315410623
H           -8.61890196640914        3.41133407613407        1.37416436106762
H          -11.02707921346204        2.91832722115830        1.46490001933985
H          -11.94852674588754        0.99549241616712        0.21790261468806
H          -10.44511720189933       -0.42311318891414       -1.13315182813794
H           -8.04023607873904        0.07832863094029       -1.24476554715849
H           -7.98014872508809        4.02587130469252       -1.32777924008510
H           -7.25101907934268        6.37322990517018       -1.39847842886596
H           -5.22838098400606        7.08338001806274       -0.17182681327457
H           -3.94648229595342        5.42794827801268        1.13953041974906
H           -4.68465909218830        3.08385847302179        1.23177182478997
H           -4.47428466245142        2.06153058338257       -1.27713169176243
H           -2.83866876545685        0.24947378639565       -1.29072512915314
H           -1.28430825547091       -0.82898566678574       -0.04312411100440
H            1.29085645535787       -0.83133372577944       -0.04772888405641
H            5.39837248855438       -2.09306253970748        1.20387177268941
H            7.03497652211963       -0.28353579276819        1.23161395813568
H            4.68347143564709        3.04674968542757        1.26896995727503
H            3.93781915528833        5.38961303825306        1.23262589572609
H            5.21323112328982        7.07981770665351       -0.04037658589295
H            7.23661686636466        6.40506022489840       -1.28567512138026
H            7.97263850757468        4.05907604021372       -1.27209725865461
H            8.62505853878480        3.38080792373789        1.40641536801947
H           11.03479766093240        2.89057954458815        1.47060637922462
H           11.95210998886256        1.00037010459314        0.17185306893091
H           10.44298133888214       -0.38897570509367       -1.20293956602591
H            8.03595431743278        0.10900857335358       -1.28614427138583
H            4.47078501282227        2.07212683956560       -1.25940224309139
H            2.83769359917936        0.25756686633276       -1.29006807019132
H            4.47473008888489       -3.70957819165148       -0.06403240921121
H            2.87456535643097       -5.54819944641909       -0.05297530232637
