90
 energy: -140.330279224233 gnorm: 0.000076555268 xtb: 6.7.1 (edcfbbe)
N           -2.06699658022263       -8.00820411319601        0.04834026198347
C           -1.15303583438824       -7.29769544404495        0.03378025610174
C           -0.00401288401424       -6.51580679372112        0.01831390495579
C            1.14413990276859       -7.29893193906433        0.03672006408909
N            2.05729854099817       -8.01038177086061        0.05395331141783
C           -0.00321286710514       -5.10000094567998       -0.00898767329967
C           -1.15303669523404       -4.24762096169321       -0.02042259667834
C           -2.52287857161881       -4.52164261196011       -0.01431180899575
C           -3.41929836518250       -3.47839574015086       -0.00826087769551
C           -3.00198007095690       -2.13147031394169       -0.02616030272716
C           -3.98322794654027       -1.05463664954050       -0.02103491793431
C           -5.19422223566423       -1.17768958345519        0.67362187990200
C           -6.11785026794235       -0.15932720785750        0.68821963385455
C           -5.87401630113758        1.03361408672673       -0.00400888868947
N           -6.80641957989259        2.06355475204065        0.00594303730342
C           -8.17565596551886        1.77507391062580        0.06092675324395
C           -9.03203067021933        2.57174077832894        0.82326507125479
C          -10.38295584524844        2.28794816320774        0.87089843852196
C          -10.89846268630397        1.21013934142163        0.16719008909867
C          -10.05165313792952        0.41646481117865       -0.59141138450180
C           -8.69955010135612        0.69315843759711       -0.64943385580271
C           -6.38660220520772        3.39845596212840       -0.03629940326220
C           -7.11118293811464        4.34103501948183       -0.76850503604619
C           -6.69758022830817        5.65845400961089       -0.80310882327685
C           -5.56043098043632        6.05534846383227       -0.11612913489201
C           -4.83792598830399        5.12275185011779        0.61238352651446
C           -5.24468000011588        3.80347132577984        0.65786016537371
C           -4.66922725588473        1.16415904033666       -0.70632220908578
C           -3.74764847803015        0.14399120793039       -0.70825114215427
C           -1.63303717217237       -1.84978415189955       -0.04820177900038
C           -0.72164034782872       -2.88344876897645       -0.03662396810201
C            0.71782436071577       -2.88428614642645       -0.03690012601295
C            1.63043789610353       -1.85168851971665       -0.04886808046537
C            2.99904848136037       -2.13500570063658       -0.02733109975442
C            3.98165290998858       -1.05940094214634       -0.02218179270363
C            5.19245671468582       -1.18412254650691        0.67251001157485
C            6.11740537904318       -0.16697177869947        0.68732333765428
C            5.87526432445085        1.02633815647210       -0.00488267119976
N            6.80912897416951        2.05497714792147        0.00503582727570
C            6.39110343066604        3.39045422462428       -0.03777737106618
C            5.24978814280463        3.79732139541587        0.65630261640629
C            4.84469076802463        5.11708870096112        0.61011437198579
C            5.56827188598434        6.04835584355983       -0.11903124947986
C            6.70485751941004        5.64963626949030       -0.80588763881603
C            7.11679581046651        4.33171436704106       -0.77058370863953
C            8.17797620510069        1.76466805649538        0.06004336716555
C            9.03560144678197        2.56083742006428        0.82152367877848
C           10.38613994645537        2.27522808022786        0.86920025535975
C           10.90007059570486        1.19604265182622        0.16645040916122
C           10.05204228456318        0.40285323691990       -0.59129547323107
C            8.70032968963328        0.68140693006827       -0.64942575188509
C            4.67064728595948        1.15853791145923       -0.70720763485323
C            3.74767106562557        0.13962982345616       -0.70922710389707
C            3.41477393554496       -3.48242532080936       -0.00982097100433
C            2.51712254043280       -4.52461091118396       -0.01549354983053
C            1.14760900913736       -4.24896135401468       -0.02075953613643
H           -2.87822484893740       -5.54122053079042       -0.01529757940434
H           -4.47623630888638       -3.70041420198397       -0.02510792533413
H           -5.39069688698935       -2.07396406926070        1.24207884360825
H           -7.02986643197622       -0.26671319816194        1.25652013827642
H           -8.62808490128838        3.40164534696370        1.38383004114779
H          -11.03612827526223        2.90633584609890        1.46826261598875
H          -11.95437395714677        0.99042902896393        0.20834030103753
H          -10.44796273562362       -0.41924539338247       -1.14868049462287
H           -8.04305083317323        0.08418520293942       -1.25322072281243
H           -7.98850400667874        4.02979151058942       -1.31580873089205
H           -7.26199772501228        6.37813433911466       -1.37698652921897
H           -5.24002405390779        7.08555912907151       -0.14761714634384
H           -3.95636765814207        5.42623866745307        1.15713284619736
H           -4.69203258684834        3.08109693483822        1.24009971647397
H           -4.47845323437515        2.06552544452763       -1.26973600298160
H           -2.84179397542213        0.25425351082364       -1.28451069140717
H           -1.28886877144946       -0.82612818665391       -0.03535040361122
H            1.28749387946367       -0.82762118263270       -0.03585866765061
H            5.38770403157134       -2.08073634073984        1.24085562859403
H            7.02920829077156       -0.27562840837457        1.25572284027081
H            4.69624183481487        3.07596174507462        1.23894826093478
H            3.96351104512678        5.42197492170948        1.15469528370065
H            5.24915699218983        7.07895232568991       -0.15107824749963
H            7.27020187022359        6.36829776014964       -1.38013098952752
H            7.99369224295432        4.01905949952513       -1.31776372069258
H            8.63295269614957        3.39186099409599        1.38136295150464
H           11.04028023746140        2.89340873997912        1.46572067281322
H           11.95570309019426        0.97498126626054        0.20756166038299
H           10.44706494572774       -0.43399206443718       -1.14778104684196
H            8.04293803553420        0.07275711486257       -1.25256522704851
H            4.48109269775266        2.06019879036667       -1.27055971652429
H            2.84195617638782        0.25117756739433       -1.28546235138338
H            4.47144343492640       -3.70567043236023       -0.02728498981843
H            2.87126527198619       -5.54460706831976       -0.01687161565958
