56
 energy: -95.477589629998 gnorm: 0.000046744977 xtb: 6.7.1 (edcfbbe)
N            7.14045502329868       -1.61870086968972       -0.87850609624325
C            6.14983361127183       -1.04218640687535       -0.75839422235885
C            4.94159000737599       -0.34509217108861       -0.61112398893030
C            3.81801336953165       -0.70720300121527       -1.36897970780308
C            2.63104886005624       -0.03344699732321       -1.20883108275899
C            2.51628473648095        1.02205900442753       -0.29299667742932
C            1.25654389825236        1.74307967475381       -0.10435925605877
C            1.25697623334525        3.12243212499161       -0.07800463023360
C            0.05250042031973        3.84607098727341        0.00727202234009
C            0.07250655532952        5.24385954412628        0.00988482588799
N            0.08966105886560        6.39855657423115        0.01212707672118
C           -1.17191111667081        3.15577093670103        0.08979034788224
C           -1.20883236369657        1.77703925700983        0.11148007347990
C           -2.48794045310316        1.08959496166593        0.29725639082304
C           -3.61349516439254        1.49426176245418       -0.43415898547017
C           -4.82094087812039        0.85559348927966       -0.29039661263147
C           -4.94745600239406       -0.21571122120707        0.60796830133547
C           -6.17267023670951       -0.88375428346751        0.75033542369685
N           -7.17702499239759       -1.43673993974249        0.86662134681407
C           -3.83646554516948       -0.60440434044802        1.37114995645803
C           -2.63241461213397        0.03924765816971        1.21457973409727
C            0.01394781785336        1.05688225327095        0.00269241723214
N           -0.00659955605410       -0.35261223822257        0.00101552433523
C            0.62634802564196       -1.05890987086386        1.00002589576845
C            1.25215770645394       -0.42830331159944        2.08335591408149
C            1.90280437457715       -1.17271887009639        3.04122483315248
C            1.93709974259063       -2.56599248566194        2.95908977740753
C            1.28233960697304       -3.21417683149904        1.93228335921824
C            0.61728192018316       -2.47515162860254        0.95904874220894
O           -0.05341093684746       -3.15198701351189        0.00034330293126
C           -0.70020356843965       -2.45271174899459       -0.95865578083399
C           -1.38884064393070       -3.16865949997247       -1.93277296244338
C           -2.02068806790277       -2.49844237879571       -2.95975252980709
C           -1.93956963905466       -1.10705719307756       -3.04130055056082
C           -1.26544771978428       -0.38522955553247       -2.08236410417265
C           -0.66187981800426       -1.03696711453502       -0.99891007057581
C            3.65459724087381        1.39884432763862        0.43395560635650
C            4.84502647753275        0.72999754990859        0.28656211432641
H            3.89880733819607       -1.51431251328246       -2.08304188081939
H            1.79082919424606       -0.29951603894893       -1.83336096423355
H            2.18621110597436        3.66308280705647       -0.17686223346286
H           -2.08626672655285        3.72091676841055        0.19021491460063
H           -3.52129383494528        2.30662139409751       -1.13990930299246
H           -5.67916854116779        1.16548156823237       -0.86879855335411
H           -3.94032152840032       -1.40805651484045        2.08612537729842
H           -1.80115449026932       -0.24646991692603        1.84243004970573
H            1.20839451510318        0.64489114039046        2.16664572862229
H            2.38477108448640       -0.67155666395764        3.86533561423021
H            2.45664352055598       -3.13865042711855        3.71017149828372
H            1.26097240858661       -4.28954416350904        1.86156054515588
H           -1.40362332934025       -4.24416356005813       -1.86248904204993
H           -2.55851231822899       -3.05301184917497       -3.71153459067022
H           -2.40380226601880       -0.58968720502868       -3.86555637064431
H           -1.18566412538302        0.68595072839138       -2.16515263032980
H            3.58565708344816        2.21389997362800        1.13926368245717
H            5.71292346948788        1.01914610279663        0.86129640290092
