  56
        -95.51352577
 N          6.9969875008       -1.7832043811       -0.8493471445
 C          6.0321607965       -1.1735842456       -0.7395201329
 C          4.8441769486       -0.4191030379       -0.6079542668
 C          3.7597648906       -0.6757895110       -1.4476440618
 C          2.5978522529        0.0539302124       -1.3080933902
 C          2.4980365833        1.0446027251       -0.3328510214
 C          1.2422647265        1.7957047160       -0.1519871380
 C          1.2517998704        3.1816655857       -0.1228824058
 C          0.0587236243        3.8886780760        0.0206333398
 C          0.0762485025        5.3015670347        0.0350943766
 N          0.0918793112        6.4480032407        0.0473459805
 C         -1.1508512180        3.2074527735        0.1511092240
 C         -1.1727617638        1.8217141584        0.1580010893
 C         -2.4450754922        1.0954281972        0.3254962674
 C         -3.5266793896        1.3840262754       -0.5035140146
 C         -4.7051510997        0.6764806700       -0.3911926749
 C         -4.8168931398       -0.3313121230        0.5669796757
 C         -6.0177660589       -1.0681140035        0.6807145625
 N         -6.9917649118       -1.6660275237        0.7733281643
 C         -3.7475056529       -0.6076634135        1.4194847607
 C         -2.5726241414        0.1040605174        1.2966521459
 C          0.0267754172        1.1111719267       -0.0015675941
 N          0.0104065513       -0.2945042305       -0.0084876657
 C          0.6415353594       -1.0172594206        1.0079699021
 C          1.2687144578       -0.3947893744        2.0790931568
 C          1.9039820786       -1.1414103250        3.0597835812
 C          1.9049038300       -2.5198035391        2.9937374555
 C          1.2362611534       -3.1564970265        1.9589821697
 C          0.5991727635       -2.4164290260        0.9801049984
 O         -0.0851296150       -3.1122663636        0.0161148202
 C         -0.7307776373       -2.3886454427       -0.9538224719
 C         -1.4299600092       -3.0994070280       -1.9117092417
 C         -2.0648419987       -2.4355286294       -2.9506718198
 C         -1.9668101498       -1.0621416372       -3.0433865460
 C         -1.2694487166       -0.3447798926       -2.0833624366
 C         -0.6770061598       -0.9907674050       -1.0063950647
 C          3.5940951501        1.3122034876        0.4843366540
 C          4.7597945799        0.5864679347        0.3552984110
 H          3.8361794916       -1.4451529974       -2.2013964847
 H          1.7665300841       -0.1359863743       -1.9711167351
 H          2.1820201203        3.7172336042       -0.2424193773
 H         -2.0687746901        3.7619955665        0.2789983773
 H         -3.4332235151        2.1555987301       -1.2537901999
 H         -5.5402354554        0.8930433137       -1.0404963702
 H         -3.8451986017       -1.3781328649        2.1696513825
 H         -1.7521531117       -0.1016981756        1.9685474773
 H          1.2514354717        0.6810526241        2.1575475938
 H          2.3913432559       -0.6321086886        3.8764377654
 H          2.4043075051       -3.1052401599        3.7488938173
 H          1.1900709538       -4.2316951638        1.8963471529
 H         -1.4595678832       -4.1738239105       -1.8291858841
 H         -2.6145371790       -2.9976054371       -3.6884146616
 H         -2.4267349264       -0.5347190017       -3.8644172128
 H         -1.1777065041        0.7259458109       -2.1805278570
 H          3.5226231427        2.0821266703        1.2388208838
 H          5.6057917986        0.7871875736        0.9955311261
