  127
       -199.20145865
 C        -11.5408979361        0.7420296121        5.7996348957
 C        -10.7037752728        0.0114120104        5.0714319550
 C        -10.4064997436        0.1776532694        3.6551252074
 C         -9.5900796650       -0.7599133612        3.0194100227
 C         -9.2897500472       -0.6545207735        1.6764764156
 C         -9.7870341796        0.4035029219        0.9272915997
 C         -9.4831955004        0.5198020265       -0.5462724692
 O         -8.2905318936       -0.1193993102       -0.9475444416
 C         -7.1014951762        0.3870197954       -0.5371451749
 C         -6.9373727466        1.4830253357        0.3052526932
 C         -5.6672271586        1.9223479050        0.6716746586
 C         -4.5175168809        1.3155872560        0.2024169064
 C         -4.6680749441        0.2371630236       -0.6608407805
 C         -5.9491913679       -0.2527772221       -1.0099109077
 C         -5.7397476719       -1.4000162923       -1.8379901384
 C         -6.5916648731       -2.2924096443       -2.4761420495
 C         -6.0394911382       -3.2967223609       -3.2466440604
 C         -4.6561928059       -3.4096249855       -3.4044568666
 C         -3.7903680189       -2.5384218369       -2.7742225445
 C         -4.3328355965       -1.5446080501       -1.9696922584
 N         -3.7012584179       -0.5487841973       -1.2576915920
 C         -2.3275484366       -0.3592075323       -1.1620550944
 C         -1.7745459520        0.9406599690       -1.3241689540
 C         -0.4303968201        1.1298119551       -1.2406730621
 N          0.1650627321        2.4060690314       -1.3602382023
 C          0.5833766099        2.9919908852       -2.5289147950
 C          0.1987166990        2.7135685918       -3.8332026451
 C          0.7648392997        3.4683057233       -4.8414932552
 C          1.6912009963        4.4732643037       -4.5628317718
 C          2.0837870117        4.7498194141       -3.2661031303
 C          1.5310558057        4.0039706436       -2.2359736388
 C          1.7024220137        3.9920753193       -0.8100721853
 C          2.5728967338        4.6465753938        0.0652737791
 O          3.5143961338        5.4670697179       -0.4698703515
 C          4.7345498009        5.6079021391        0.2410927838
 C          5.2681585146        4.2970608517        0.7695143842
 C          5.9382207734        4.2461055384        1.9859768968
 C          6.3323873493        3.0371568902        2.5232007563
 C          6.0445210585        1.8363964137        1.8727379367
 C          6.3576297297        0.5294282372        2.4345243842
 C          7.0519929428        0.2853442208        3.5393220952
 C          5.4023300700        1.8992517237        0.6352309186
 C          5.0373742025        3.1101645387        0.0835903161
 C          2.4502934088        4.3727739237        1.4284668263
 C          1.5435870518        3.4330500140        1.8990501883
 C          0.7373845610        2.7097934337        1.0403942954
 C          0.8349067692        2.9980318740       -0.3134740576
 C          0.4721210336        0.0337186748       -1.0054414495
 C          1.8321704838        0.2061045809       -1.1490354254
 N          2.9756307304        0.3640217809       -1.2917982501
 C         -0.1207352596       -1.2615086813       -0.7487138972
 N          0.7371081343       -2.3128849133       -0.4140738101
 C          0.8384600552       -3.5247028790       -1.0581187754
 C          0.0787960779       -4.0425666229       -2.0985493965
 C          0.4075225577       -5.2943213128       -2.5801520186
 C          1.4726918896       -6.0194808305       -2.0470362657
 C          2.2501853297       -5.5019548703       -1.0278463453
 C          1.9390774603       -4.2452520753       -0.5300469989
 C          2.5210020111       -3.4081904725        0.4797253310
 C          3.6407109824       -3.5446515501        1.3062560986
 O          4.3838423787       -4.6700521653        1.1541873335
 C          5.6407489311       -4.7486931757        1.7907434761
 C          6.6085470979       -3.6545391621        1.4041849575
 C          6.4216644135       -2.8918894655        0.2584513818
 C          7.2857684640       -1.8584279179       -0.0452773934
 C          8.3767976201       -1.5735201823        0.7736413155
 C          9.2779110335       -0.4565978107        0.5136770870
 C          8.9696241722        0.6298897070       -0.1822756184
 C          8.5931179703       -2.3852643877        1.8876061164
 C          7.7130098335       -3.3988836068        2.2084418426
 C          3.9108862583       -2.5143943032        2.2061181481
 C          3.1006221840       -1.3865835597        2.2706293420
 C          2.0065204864       -1.2213432860        1.4436005414
 C          1.7419189380       -2.2328701529        0.5280141340
 C         -1.4727855170       -1.4393081825       -0.8565358873
 C        -10.5927083356        1.3491107227        1.5518776688
 C        -10.9009556458        1.2373288850        2.8915638213
 H        -12.1052051141        1.5634055044        5.3926863715
 H        -11.6991023642        0.5353699780        6.8440196453
 H        -10.1794444778       -0.8099231385        5.5452994550
 H         -9.1919445953       -1.5879529064        3.5887901139
 H         -8.6606531061       -1.3935948555        1.2017631062
 H        -10.2658320208        0.0087560345       -1.1204291058
 H         -9.4738130364        1.5759093115       -0.8510711223
 H         -7.7953263177        1.9948069428        0.7097486213
 H         -5.5858863814        2.7599797328        1.3474586239
 H         -3.5436692341        1.6568475916        0.5140895332
 H         -7.6595079009       -2.1876714651       -2.3693121642
 H         -6.6839246079       -4.0020957140       -3.7496443759
 H         -4.2573422536       -4.1899988047       -4.0350883425
 H         -2.7248074765       -2.6149909255       -2.9192634610
 H         -2.4258217805        1.7721993674       -1.5436906093
 H         -0.5143544020        1.9310300823       -4.0452427445
 H          0.4865759571        3.2768588367       -5.8672622110
 H          2.1089771937        5.0421648008       -5.3801585244
 H          2.8039315090        5.5225880844       -3.0487799308
 H          4.6194409716        6.3271096602        1.0643412951
 H          5.4246669696        6.0415183245       -0.4919560059
 H          6.1368716281        5.1623924962        2.5255725423
 H          6.8391000032        3.0269222216        3.4757028823
 H          5.9678756864       -0.3027846429        1.8639866792
 H          7.4819243790        1.0641129221        4.1458865026
 H          7.2313683976       -0.7224482889        3.8727198083
 H          5.1548507727        0.9893135654        0.1100697868
 H          4.5363296725        3.1238049500       -0.8719720898
 H          3.0828210680        4.8802215704        2.1380880416
 H          1.4895303275        3.2503689184        2.9617109733
 H          0.0624007295        1.9498153289        1.4026002002
 H         -0.7344594230       -3.4801359939       -2.5274755656
 H         -0.1700455846       -5.7189879999       -3.3876446938
 H          1.6957445780       -6.9971102014       -2.4472072862
 H          3.0855309338       -6.0506265692       -0.6233556657
 H          6.0376292390       -5.7226151129        1.4803227883
 H          5.5181714652       -4.7685120923        2.8836329398
 H          5.5865865322       -3.0959437225       -0.3943395306
 H          7.1140665329       -1.2706294093       -0.9328693187
 H         10.2541921276       -0.5366336160        0.9758582127
 H          7.9981987871        0.7754162952       -0.6217927424
 H          9.6772722955        1.4291557586       -0.3207522752
 H          9.4468283126       -2.1967663182        2.5229129530
 H          7.8782515850       -3.9977917059        3.0936158686
 H          4.7626572577       -2.5725438216        2.8635995709
 H          3.3473340976       -0.6138252509        2.9826362124
 H          1.3971249656       -0.3351132412        1.5029787794
 H         -1.9051555903       -2.4047446644       -0.6414918304
 H        -10.9811308846        2.1798428274        0.9787456606
 H        -11.5259584905        1.9870564618        3.3510487515
