127
 energy: -199.282593039173 gnorm: 0.000059968693 xtb: 6.7.1 (edcfbbe)
C          -11.40225995555691       -0.83142017458911        5.72541322810268
C          -10.73841749203897       -1.40217668200398        4.72659325556810
C          -10.44037972699207       -0.81503258311455        3.42536408487404
C           -9.65016336538641       -1.53209329573762        2.52503489455175
C           -9.34056830481456       -1.02214545737383        1.27964367118734
C           -9.80620177603991        0.22894529886679        0.89800260591985
C           -9.49436702137560        0.79027215792476       -0.46828198396971
O           -8.31658394877082        0.27235585365035       -1.05607280146718
C           -7.11192952012580        0.59668495153825       -0.52398236814494
C           -6.91292987037548        1.40110933151115        0.59589859911364
C           -5.63057539938855        1.66652682207607        1.06878664184089
C           -4.50106537281029        1.16780434824387        0.44642713040182
C           -4.68602697614281        0.38412630916154       -0.68671328400192
C           -5.98139471403281        0.07298138693095       -1.16293469228399
C           -5.80986259198060       -0.79844974082978       -2.28591455433832
C           -6.69077344754352       -1.42690419243771       -3.15649989070021
C           -6.17225558908237       -2.19731864352029       -4.17964452072645
C           -4.79284961298416       -2.33272936384994       -4.35466904477689
C           -3.89851847252559       -1.72117656724757       -3.49925609427124
C           -4.40868076684302       -0.96768408625874       -2.44815329497902
N           -3.74546151448617       -0.24598524453487       -1.48009314714737
C           -2.36489411579924       -0.16963515331616       -1.31577612975842
C           -1.73619638882535        1.07928728098324       -1.09718943882864
C           -0.38888380145635        1.16453056614049       -0.89188776964403
N            0.23799032178761        2.40977512730998       -0.72477248110207
C            0.22622834468277        3.44793851106652       -1.62787983432433
C           -0.44679976319277        3.55864641962366       -2.83835647391201
C           -0.27464157017718        4.71990723707359       -3.56586602109376
C            0.54943782944799        5.74844245728838       -3.10807599416527
C            1.23511388768348        5.63843312988806       -1.91262123539838
C            1.07930555368680        4.48029709337236       -1.16370501517021
C            1.62546837999266        4.02118721614264        0.08204368775876
C            2.52077879780130        4.57902307312510        1.00163012213201
O            3.02411012549831        5.80223170740210        0.70144418141463
C            3.98805801174777        6.38151203210836        1.56104934591486
C            5.29153541055360        5.62254453575246        1.63272734654194
C            6.11368429778352        5.75171711826452        2.74690217525295
C            7.31122046727570        5.07011747869313        2.82201233509565
C            7.72244386252033        4.22725521376585        1.78750082736180
C            8.97189591531442        3.47524741156539        1.82037980647598
C            9.94082087033328        3.58091702270212        2.72231041723081
C            6.88798111786053        4.10328020201014        0.67540307177634
C            5.69661463772402        4.79661954931073        0.59280662780241
C            2.81824974228198        3.84250128451077        2.14694745134616
C            2.24162234025556        2.59748496750037        2.37010722979187
C            1.36273716421821        2.02610316530224        1.47050390541793
C            1.08004522573536        2.74126196583119        0.31403664949152
C            0.44114075575587       -0.01839464261218       -0.89667042002460
C            1.81282726631952        0.06474338769154       -0.88762917596518
N            2.97670123692376        0.12999117898135       -0.88551444973704
C           -0.23088784969910       -1.28423404146124       -1.08832945312638
N            0.54878397703670       -2.45101055633750       -1.07350991275463
C            0.69289799593084       -3.34434723441804       -2.10995303446157
C            0.08082707085775       -3.35680689982175       -3.35644346850037
C            0.41687601726307       -4.37149364377944       -4.23066980728027
C            1.34537596689662       -5.35172532794145       -3.87992934062055
C            1.97523686796817       -5.33419199564936       -2.64904554239769
C            1.65400945754698       -4.32304572263648       -1.75439781405276
C            2.10417188045167       -3.98244927366335       -0.43423704710972
C            3.04591188508677       -4.54598617201409        0.43344824902731
O            3.71710292945624       -5.63527394815523       -0.01633645223569
C            4.75254581424219       -6.18507376960231        0.77654629544261
C            5.92366181175427       -5.25813554640982        1.00070064036842
C            6.18416035278962       -4.20723008657990        0.13060773234588
C            7.24761460333085       -3.35527515398799        0.35440386529444
C            8.09488736166534       -3.53847627845921        1.44706339778873
C            9.22049403823130       -2.65429186003057        1.73163998500461
C            9.40377173483345       -1.43673288739096        1.23529436981543
C            7.84586207825142       -4.61910586235655        2.29591769394947
C            6.77127536065989       -5.45906368027595        2.08405541594370
C            3.21774960145811       -3.94872676806126        1.68124553166337
C            2.47869510598847       -2.83077696493437        2.05052643849154
C            1.55517570545863       -2.25114318225976        1.20231839492898
C            1.39408609954649       -2.82532616401021       -0.05191617895072
C           -1.57751255826686       -1.34462102592228       -1.30816798685497
C          -10.59538941845785        0.95175721915515        1.78589747993997
C          -10.91032714937764        0.43834296052698        3.02738169994165
H          -11.80224078438021        0.16643928694517        5.66757762486567
H          -11.56932467856612       -1.35149965065950        6.65343121855822
H          -10.35758800966286       -2.40798391903084        4.86019074163954
H           -9.27474924125871       -2.50575718036789        2.80715859955544
H           -8.72965340830618       -1.59519016871586        0.59669185473170
H          -10.28784543781584        0.50235373049713       -1.16871052886995
H           -9.45412224625562        1.88710663637355       -0.43184270021339
H           -7.75472896832702        1.81008183845404        1.13037888153337
H           -5.52210042401287        2.27581063651359        1.95315036600331
H           -3.51752356888304        1.36459799152287        0.84161789887474
H           -7.75481271583543       -1.30326197917729       -3.02993568575008
H           -6.84051743116999       -2.69560639627851       -4.86634688460290
H           -4.41939149697141       -2.92352350203917       -5.17773785423639
H           -2.83510843327894       -1.81430569569104       -3.65221241382530
H           -2.33038389290196        1.98025076866590       -1.11788297970166
H           -1.07464006927819        2.75887015916787       -3.20110954050304
H           -0.78615172119675        4.83323391502139       -4.51022254671932
H            0.65639395956280        6.64191825789307       -3.70517620843290
H            1.88257454473673        6.42609828022015       -1.56070873885387
H            3.57014371395722        6.51760652043152        2.56762926005170
H            4.16382316019132        7.37363958177176        1.12824197289328
H            5.80806278166960        6.39152182688640        3.56309992080189
H            7.92574405226981        5.18349757172565        3.70139156434411
H            9.09215208215014        2.77581880923364        1.00166006179573
H            9.89440246938845        4.26489909553517        3.55243452159257
H           10.83224298839014        2.98031698034015        2.65704376841522
H            7.17866271228332        3.45504901748487       -0.13917068848811
H            5.06971656755821        4.68691441667197       -0.28065390094649
H            3.51227073432864        4.22616770356360        2.87659896797358
H            2.49427275222767        2.06504837089473        3.27452553628911
H            0.92009736603193        1.06096776845356        1.65626012070779
H           -0.62313493650587       -2.58793150426080       -3.63483521937716
H           -0.04526720661080       -4.40527510496149       -5.20610074965912
H            1.58021613233168       -6.13154463880820       -4.58906985285217
H            2.70510707084997       -6.08139996961246       -2.38000601526667
H            5.08079321244184       -7.06299049478862        0.20735763956455
H            4.35365311111895       -6.53297260545552        1.73921734324739
H            5.54301771389546       -4.04850612756588       -0.72484837776535
H            7.42388204052507       -2.54566687856878       -0.33662884176544
H            9.94013993110549       -3.05051619281170        2.43827096232425
H            8.70693012326078       -0.97916481307420        0.55364703744539
H           10.26049732855828       -0.84356716348174        1.50693529277400
H            8.49542949388731       -4.78844104589927        3.14314984278764
H            6.58569495270450       -6.27934636499398        2.76329496855830
H            3.93855751608022       -4.34253391029788        2.37883071830608
H            2.63852860051127       -2.40598601343671        3.02992324797680
H            0.98570719542818       -1.38572587319874        1.50018447505326
H           -2.05725371760969       -2.30524251851228       -1.42049256535653
H          -10.96682124920382        1.92532071192908        1.49756142867670
H          -11.52911661938834        1.01878899881567        3.69365217652541
