127
 energy: -199.371371736508 gnorm: 0.000081269322 xtb: 6.7.1 (edcfbbe)
C            9.76528713526150        5.16802343395992        5.50482115515328
C            8.88972938584083        5.42776076962175        4.54053284358888
C            8.84321885598540        4.82501171200059        3.21326047098098
C            9.75214965272364        3.85699872111698        2.78125564255699
C            9.65698822797662        3.30886998605609        1.51839829035093
C            8.65671434465014        3.71419560384970        0.64169429315973
C            8.57001243476637        3.11729945799612       -0.74204976538427
O            7.27493961955534        3.14793947637791       -1.30911764200065
C            6.29436036123640        2.38533003047304       -0.75381348194127
C            6.44015143572657        1.55983356021608        0.35205851795245
C            5.35832336773126        0.84163473918435        0.85236391404761
C            4.10737233463702        0.89135823628570        0.27040629415620
C            3.95950949079490        1.68811964501053       -0.85736472746908
C            5.03192912788344        2.45172134222473       -1.35817335281733
C            4.52559722885588        3.20706759701356       -2.46995214034650
C            5.10927579793723        4.10385576116132       -3.35519713837269
C            4.32671965691317        4.64848841578050       -4.35486282474079
C            2.98692675559192        4.29396266805850       -4.48764690926958
C            2.38775834494279        3.40201793442082       -3.61683917922104
C            3.15819871208545        2.87544145933079       -2.59188146994583
N            2.82544324345410        1.94956846475122       -1.61343398602400
C            1.57254618425680        1.38005514683815       -1.41228877592347
C            1.46099958329264        0.00875212262438       -1.18252642142309
C            0.22508460633205       -0.57026855646064       -0.93814177599281
N            0.13368869034819       -1.94428820791987       -0.71725850754612
C            0.63699537375128       -2.93179330081818       -1.54991313160208
C            1.30424201943165       -2.81337889904279       -2.75904701894957
C            1.67228558987716       -3.97863753299437       -3.40714321181961
C            1.37860593328711       -5.23077829373489       -2.87282342531012
C            0.69629473368869       -5.35414364960182       -1.67793376153587
C            0.31691340463952       -4.19690345710770       -1.00992509410746
C           -0.39932914618162       -3.95051274200739        0.21015865984697
C           -0.94331353279952       -4.79847091154259        1.18455173737411
O           -0.81612651554685       -6.13250983958864        0.96934457779545
C           -1.35381080998208       -7.03728957545568        1.92692420732376
C           -1.08223554975650       -8.42961437323746        1.42474087806800
C           -1.95505456284074       -9.03732795311445        0.52961308379896
C           -1.69804503585572      -10.30251159140865        0.04093977286200
C           -0.55483255356181      -11.00259904939609        0.43096111808514
C           -0.23793588184882      -12.34384794016724       -0.04704934496819
C           -0.98295619185151      -13.10305859307567       -0.84229033259343
C            0.32135305230124      -10.37886737424004        1.32174475848921
C            0.06382880682775       -9.11293973112310        1.81007941395834
C           -1.55493873174186       -4.21209759552070        2.28441588906998
C           -1.60968638901253       -2.82757548043178        2.42046376306773
C           -1.08032533584134       -1.97664542962301        1.47267463564363
C           -0.49639540480429       -2.55346235876932        0.35396863085448
C           -0.93446112011267        0.22820022773055       -0.94255683789967
C           -2.20837530328959       -0.36573870238421       -0.84937840347140
N           -3.24883432469654       -0.85182445711386       -0.84134475169154
C           -0.81873218956888        1.61377074532253       -1.16390807982570
N           -1.95602430454034        2.42281535782515       -1.14527011113685
C           -2.35624040178232        3.27327419767614       -2.16253881357630
C           -1.78893678541604        3.48657357441522       -3.40842077227168
C           -2.41254551626126        4.38202057439114       -4.25772368625494
C           -3.58054644627265        5.04141426838995       -3.88291881534635
C           -4.16667457018009        4.80999706808164       -2.65345900809208
C           -3.55496292420964        3.91616959460742       -1.78385362816154
C           -3.88174421022238        3.42853700163302       -0.47309679720487
C           -4.92714364916473        3.71095186173502        0.41595352806211
O           -5.85183386533357        4.61716569398927       -0.00228195669534
C           -6.91284540099832        4.96397166380407        0.86621732207203
C           -7.90931769182054        3.85530504797794        1.10372106086631
C           -8.67649219598547        3.83927782528137        2.26332401903006
C           -9.60371914454660        2.84066264330203        2.48102583118727
C           -9.78927550921415        1.81868347600184        1.54781047575733
C          -10.74778370308817        0.73485314860982        1.73179664292517
C          -11.62470610504828        0.60566104524769        2.72077213813893
C           -9.01129895916114        1.84324763664507        0.38887885909092
C           -8.09198855167816        2.84893141383011        0.16491074363321
C           -4.92823096204272        3.06160150396593        1.64233017300051
C           -3.90963241577378        2.17680459869642        1.98395917033565
C           -2.86780724677695        1.89054885075910        1.12603491752430
C           -2.87852417860919        2.50680196862368       -0.11666167921536
C            0.42685675781556        2.17592375328358       -1.40034015016574
C            7.75561099996537        4.68584760779005        1.05605469035335
C            7.84523194037163        5.22668640613307        2.32338671760047
H           10.56365245532661        4.45426551324911        5.39425397874584
H            9.71263330301220        5.67008640262586        6.45603194547233
H            8.11226896512205        6.16005415598922        4.72486655669508
H           10.53877946558705        3.52340929842328        3.43975020242699
H           10.36615222906065        2.55484431874429        1.20579928567582
H            9.17624719254577        3.71295934646785       -1.43540427568217
H            8.96306658848732        2.09152343775912       -0.74068565138257
H            7.38876279335528        1.48208000969680        0.85755924887860
H            5.50764228298926        0.22926636006645        1.72904510498977
H            3.28151270816212        0.34348618007664        0.69468047131766
H            6.15326259960559        4.35557133576345       -3.25613585616332
H            4.75928056896200        5.35054712331800       -5.05226403220225
H            2.40161992568038        4.72036884121601       -5.28897145995106
H            1.35495682894147        3.12147951547340       -3.74709273280989
H            2.34081128703027       -0.61431989065365       -1.19685437176160
H            1.52333983323610       -1.84817657278768       -3.19033403599202
H            2.19570393369068       -3.91387892892923       -4.34964443843234
H            1.68358813464661       -6.11769276028189       -3.40824838221208
H            0.45222572179268       -6.31996045737877       -1.26423433028929
H           -2.43470343879175       -6.87092749948293        2.02880346585659
H           -0.87109357825034       -6.87872128685806        2.90051749310001
H           -2.84338723342280       -8.50938304008444        0.21314467065196
H           -2.39310794904181      -10.74804444814565       -0.65345117718635
H            0.70909687193739      -12.73265516440680        0.30852417812557
H           -1.93628756225371      -12.78592503347025       -1.22894208578083
H           -0.65935389289059      -14.08680547039827       -1.13767038942337
H            1.21636299607699      -10.89792255295420        1.63508629312266
H            0.75743418382000       -8.64962357595845        2.49724035797895
H           -1.99178980878587       -4.82120235704422        3.05933914298301
H           -2.08020738945869       -2.41240459449424        3.29915495613747
H           -1.11904362250721       -0.90731286920434        1.60587651135234
H           -0.89901269520065        2.95881720411212       -3.71532538320160
H           -1.98730902937899        4.56869881441835       -5.23278578522446
H           -4.03883294086445        5.73505016167531       -4.57222748795841
H           -5.08163329973107        5.30202191481780       -2.36372681150990
H           -7.41045458408385        5.79742055749242        0.35535485928835
H           -6.51906839404839        5.33594395065972        1.82181001014093
H           -8.54230157926720        4.61760045725465        3.00182858152209
H          -10.18215259407850        2.85115358571631        3.39159753946496
H          -10.71719246527750       -0.02316508848328        0.95790352843069
H          -11.71740023525471        1.32327144043676        3.51799859001322
H          -12.29504704007748       -0.23592841147619        2.76549899047408
H           -9.13285299744231        1.06327150252618       -0.34961364665428
H           -7.50206907609669        2.85126912166599       -0.74063026219243
H           -5.72384548791616        3.22840110818678        2.34995160573715
H           -3.94088464827629        1.70322958762795        2.95372994288346
H           -2.08017350126435        1.21410373092717        1.41719571440041
H            0.50664410883949        3.24341562621619       -1.53220934341553
H            6.97646320863640        5.01170477333071        0.38167389235959
H            7.13021698293417        5.97681518158206        2.63111289339512
