  75
       -117.08982995
 N          0.3217320687        1.1808053186       -0.9907936579
 C          0.1677766924        0.1803924508       -0.4331614049
 C          0.0508254584       -1.0633481968        0.1857770452
 C          1.2102400940       -1.7925412024        0.4748952209
 C          2.5475685406       -1.2053079577        0.3568497436
 C          2.8210675793        0.1092227905        0.7339260482
 C          4.0896860168        0.6273533076        0.5971665437
 C          5.1243662331       -0.1531993691        0.0749193494
 N          6.4006190238        0.3830236237       -0.0930254019
 C          7.5304154204       -0.4233295930        0.0867176449
 C          7.5655380137       -1.3713459106        1.1098923561
 C          8.6821865785       -2.1655725872        1.2819462699
 C          9.7785514950       -2.0259149458        0.4460870288
 C          9.7495137610       -1.0836444224       -0.5695093952
 C          8.6359361091       -0.2878988937       -0.7536443201
 C          6.5576807427        1.7220132607       -0.4694038675
 C          5.6610232739        2.3202392146       -1.3555177939
 C          5.8266847897        3.6411526251       -1.7227754593
 C          6.8854667079        4.3821785278       -1.2226156146
 C          7.7794532301        3.7917510948       -0.3438899377
 C          7.6193070816        2.4736023086        0.0357481718
 C          4.8587360423       -1.4810667220       -0.2718925928
 C          3.5927897538       -1.9982395947       -0.1207532267
 N          1.1716305567       -3.0733114425        0.8428086489
 C         -0.0287900077       -3.6626417534        0.9161640257
 N         -1.1535270565       -3.0546478347        0.7512859031
 C         -1.2185260414       -1.7394507548        0.4201984921
 C         -2.5077827788       -1.1676419773        0.3036660732
 C         -2.7635378692        0.2131315279        0.1090491308
 C         -4.0419018937        0.6927079921        0.0175664065
 C         -5.1464080390       -0.1702083350        0.1049582986
 N         -6.4509738141        0.3199532927       -0.0012985798
 C         -7.4008748833       -0.4163650771       -0.7047581372
 C         -7.0253879472       -1.1538295525       -1.8318420493
 C         -7.9626186953       -1.8982942740       -2.5179975417
 C         -9.2842369912       -1.9241693683       -2.0987291506
 C         -9.6622334379       -1.1973254558       -0.9797418344
 C         -8.7340767806       -0.4502614956       -0.2839363756
 C         -6.7893775187        1.5277862805        0.6023766428
 C         -7.7213390942        2.3848276244        0.0084780244
 C         -8.0446706699        3.5831653331        0.6110205701
 C         -7.4473465713        3.9529387191        1.8066600317
 C         -6.5170678830        3.1105597674        2.3966729125
 C         -6.1869658014        1.9085940311        1.8052729547
 C         -4.9128792039       -1.5434053878        0.3083438950
 C         -3.6406963952       -2.0230864964        0.4076410246
 H          2.0436521108        0.7235205072        1.1611772071
 H          4.2931419084        1.6425554557        0.9037424788
 H          6.7159006620       -1.4728233211        1.7688168312
 H          8.6993099923       -2.8935478088        2.0793003564
 H         10.6500436911       -2.6471419730        0.5852540003
 H         10.5971886523       -0.9731075022       -1.2293512117
 H          8.6092665234        0.4377930834       -1.5531797589
 H          4.8411916249        1.7428007677       -1.7559397930
 H          5.1272401021        4.0918400684       -2.4106072500
 H          7.0128904219        5.4131936471       -1.5151099403
 H          8.6036731333        4.3637815189        0.0557894902
 H          8.3098257627        2.0182256817        0.7304974552
 H          5.6508831632       -2.0947649181       -0.6749033564
 H          3.3851955497       -3.0211823430       -0.3943540494
 H         -0.0425438493       -4.7166188066        1.1564100174
 H         -1.9418340761        0.9044138310        0.0291524870
 H         -4.2122679150        1.7470687365       -0.1476547529
 H         -5.9992237529       -1.1214134979       -2.1659764575
 H         -7.6617691781       -2.4576922173       -3.3911257671
 H        -10.0141038621       -2.5074990068       -2.6386700596
 H        -10.6874861825       -1.2208712611       -0.6413701869
 H         -9.0263558686        0.0983976780        0.5993631254
 H         -8.1719530812        2.1085469283       -0.9334292348
 H         -8.7616902409        4.2388905845        0.1397848933
 H         -7.7029388248        4.8917798352        2.2732933133
 H         -6.0504729796        3.3901441280        3.3294069487
 H         -5.4744408229        1.2452472118        2.2722337296
 H         -5.7587499635       -2.2087308872        0.4100683007
 H         -3.4587677983       -3.0722436378        0.5824418705
