85
 energy: -137.726267630469 gnorm: 0.000178519836 xtb: 6.7.1 (edcfbbe)
O           -1.55533933696165        2.40260713082568       -2.93998062730685
C           -1.65640058103807        1.49673907744326       -2.13364503037967
C           -2.95013953816005        1.21245501899298       -1.45778448408266
C           -3.01719832907230        0.83282647221898       -0.11843530835111
C           -4.23947780185928        0.60046784344940        0.47913272142960
C           -5.41625057224202        0.73039627979292       -0.25538791029708
N           -6.66085696229754        0.46579149532861        0.35017845342575
C           -7.62349175590055        1.47265143261460        0.46739117749166
C           -7.38082480905256        2.78136587391092        0.06980697377387
C           -8.35722423937438        3.75677204028170        0.20390910938265
C           -9.58655086157227        3.44415746094449        0.74736525651670
C           -9.83286122496157        2.14941748318835        1.17965274917492
C           -8.86199209182305        1.17394383767420        1.05039284584650
O           -9.16804288223495       -0.07484490948566        1.53233192987343
C           -8.20722575551235       -1.04843291799552        1.42324724993225
C           -8.52922530438342       -2.30148424059913        1.91024353195152
C           -7.62437406317608       -3.34770201857461        1.80711888952435
C           -6.40550962656199       -3.13327147072242        1.19718756243814
C           -6.07684620894644       -1.87766505465526        0.70891894255002
C           -6.95829669385395       -0.81101616626553        0.83319324594567
C           -5.35425009043280        1.12742098792214       -1.58938877364733
C           -4.13201902105523        1.37951016603059       -2.17676284881015
C           -0.51468823517298        0.62374355262507       -1.78638281177985
C            0.78135509561006        1.12346451612751       -1.99118902622020
C            1.90221425590233        0.37386216806934       -1.71629486004537
C            1.72061073901162       -0.91487220083927       -1.22853661371388
C            0.41997035086324       -1.45086306243987       -1.06015614449187
C           -0.69622371581552       -0.68048415413804       -1.33685280809455
C            0.59272319832812       -2.80435273241098       -0.60964290235442
C           -0.29319321879673       -3.81470975736360       -0.26028008465106
C            0.22006311497960       -5.02328161412605        0.16615675251439
C            1.59520646771055       -5.22471463486050        0.26081356355194
C            2.49583187536598       -4.23327974918944       -0.07964097590151
C            1.98585860168001       -3.02497706629395       -0.53072154848292
N            2.65283788640594       -1.87284800105492       -0.90793307888848
C            4.04708615774684       -1.72329993357439       -0.96840980809629
C            4.81546140845610       -2.65618654265803       -1.65894014949544
C            6.19052521005787       -2.51436830509117       -1.70039966126377
C            6.80781042261057       -1.44995471800146       -1.07048766553798
C            6.04316030427044       -0.51521296843739       -0.37540654277021
N            6.66657296265299        0.54935956877188        0.28379196484757
C            6.32096172669872        1.88472206620326        0.18729369804384
C            5.34727884865236        2.49366467816695       -0.58977045108663
C            5.22679290925955        3.86829202123019       -0.51899129191936
C            6.06129938370135        4.62900235354045        0.29620246974181
C            7.05149808292554        4.03237642504941        1.05082809560494
C            7.18936411337934        2.65172995324814        0.99648663911769
C            8.09822437636599        1.72605983500610        1.61313570728988
C            9.14831848795330        1.87461309555924        2.50936130554903
C            9.82110640602986        0.74601399413639        2.93282934460090
C            9.44704862732124       -0.51939043736316        2.48696039586346
C            8.40564978196841       -0.69208259612682        1.59502809902073
C            7.74370187377269        0.44076828765060        1.14464965372211
C            4.66015330187798       -0.65591672219656       -0.32387801696205
H           -2.11122654525294        0.74782073818975        0.46344470193380
H           -4.29385244984978        0.32009986013612        1.52088236050077
H           -6.41869707050428        3.04437108591276       -0.34079551464717
H           -8.14238680376722        4.76389982695785       -0.11847249042350
H          -10.35105849054274        4.19799751515285        0.84951500181473
H          -10.77482279298957        1.87548533466081        1.62728779408137
H           -9.49843988638386       -2.43906638357813        2.36224707521775
H           -7.88364547568592       -4.32101458691546        2.19261962836280
H           -5.69822336670328       -3.94151776488976        1.09105808624327
H           -5.12766054751549       -1.72918425993028        0.21847344314114
H           -6.26774702684914        1.23249774392092       -2.15577178246924
H           -4.07131296947530        1.69219298939518       -3.20837495318650
H            0.87647359172410        2.12776747179431       -2.37556578551195
H            2.88993694735864        0.76898481056633       -1.89423353015563
H           -1.68515601965323       -1.10102230500036       -1.23578628789764
H           -1.35876123372906       -3.65223949857590       -0.31900409426063
H           -0.45018039020300       -5.82415120297962        0.43985599049083
H            1.96630214299234       -6.17619700359069        0.61147080720687
H            3.55930071339309       -4.39314070796643        0.01326958665893
H            4.33095994954452       -3.47442260227270       -2.16891446977486
H            6.78587289848788       -3.23338526494870       -2.24256564217029
H            7.87830117233652       -1.32667041900184       -1.12482850436310
H            4.71122368316250        1.91798091152104       -1.24393313863830
H            4.47184148830766        4.36273609038260       -1.11198853425395
H            5.93501758370805        5.70084235649216        0.32658880593067
H            7.71115794584625        4.62282359776029        1.66847619005041
H            9.42573626377574        2.85422739423445        2.86802892716024
H           10.64279948015976        0.83931994799476        3.62706263166496
H            9.98031943993687       -1.38606149060792        2.84882990047300
H            8.11263120491052       -1.67959975778280        1.27162050209134
H            4.06668189561998        0.04646817269193        0.24174574591978
