85
 energy: -137.726042579474 gnorm: 0.000053754138 xtb: 6.7.1 (edcfbbe)
O           -2.74563356094125        4.42903759556864        0.11234528486282
C           -2.59507108795293        3.23031640180066       -0.03390027623031
C           -3.74809423973960        2.29585466543277        0.05342024014072
C           -3.63272331411374        1.03218639270444        0.63017698162142
C           -4.73411641640511        0.20559076700909        0.72243051578812
C           -5.96843890614585        0.62238119231717        0.22841740969262
N           -7.08543428752469       -0.23317678011019        0.30388264177584
C           -8.21290111636206        0.13201286623962        1.04535553504707
C           -8.26438958835073        1.30343762524027        1.79023902336972
C           -9.39831977228547        1.63368476322115        2.51682231286056
C          -10.49382357664896        0.79458343176315        2.52128955191885
C          -10.44546130258332       -0.39526823470691        1.81010377867230
C           -9.31664608518294       -0.73009625443729        1.08588645691075
O           -9.33176571633304       -1.93971575429124        0.43637239176757
C           -8.21267638704563       -2.28955392920687       -0.27641759172609
C           -8.24301893930910       -3.50770229403363       -0.92924866352474
C           -7.16412915342756       -3.91807431408443       -1.69837689877194
C           -6.06596925762194       -3.09210375340116       -1.82282079632991
C           -6.02964218383159       -1.87021747203548       -1.16807188263925
C           -7.08767213457001       -1.45864890330590       -0.36730388788812
C           -6.09133801084089        1.89095976691870       -0.33458739670870
C           -4.99288688522305        2.72187000985890       -0.40617582686213
C           -1.26961560632954        2.63418636156808       -0.30747328589434
C           -0.13267421638836        3.32204109303977        0.14533774408507
C            1.14156597018945        2.85378400230819       -0.08319241127650
C            1.27945462005968        1.67766711581190       -0.81169021496436
C            0.14330447385355        0.97129184592690       -1.27767381288371
C           -1.13060075471237        1.45200530608673       -1.02757889925156
C            0.63865248036922       -0.19597987560478       -1.95390208262305
C            0.02224792963948       -1.24596767218745       -2.62123527080751
C            0.81573441914351       -2.22225197096994       -3.18978876462321
C            2.20470198785870       -2.15364232412997       -3.10973648603899
C            2.84034496996122       -1.11936688111658       -2.44912765820637
C            2.04741365209818       -0.14739056388432       -1.85749595950616
N            2.41764827204216        0.99208522923932       -1.16548986494697
C            3.73328625344463        1.39210576384823       -0.88743005851102
C            4.15607860732382        2.67822853261790       -1.21079659772626
C            5.45483065997362        3.06226615021375       -0.93027428533600
C            6.33761674244387        2.18066691500861       -0.33469254981912
C            5.92120333125670        0.88942566576923       -0.01828077273908
N            6.80607965625702       -0.00946376994187        0.58585532674789
C            6.55194410324569       -0.75780299911919        1.72060749747733
C            5.42702414528937       -0.78157984175312        2.53201437862124
C            5.44634282914417       -1.61043531021617        3.63773881698827
C            6.55762129148130       -2.39321272373298        3.94131556201670
C            7.68933101477223       -2.35474596067767        3.15171371285854
C            7.69345971236502       -1.52966132952144        2.03489805480603
C            8.67833793438206       -1.23160810984377        1.03260690278508
C            9.97038141763679       -1.68402114752423        0.80027141447068
C           10.65376216592655       -1.19870616273210       -0.29668186313911
C           10.05845476101713       -0.28668188805239       -1.16499878113458
C            8.77408418458135        0.17805600331492       -0.95450811328675
C            8.09229376146255       -0.28611886931209        0.16090617339878
C            4.61598334661599        0.49742967143319       -0.29554262620059
H           -2.68477150163081        0.70888365092678        1.03438534011109
H           -4.64949371682276       -0.76792069949167        1.18276662812254
H           -7.40936474571373        1.96065850079476        1.81072687255394
H           -9.41184554898620        2.55313770168156        3.08146060609418
H          -11.38007985051592        1.04922445996739        3.08064344954939
H          -11.27522538354815       -1.08387725330132        1.80861585630282
H           -9.12547721295138       -4.11881768733731       -0.82714094560241
H           -7.19594524671381       -4.87146962857432       -2.20156830787555
H           -5.22686942081061       -3.38747900056276       -2.43389761451755
H           -5.17220216823678       -1.22701133152177       -1.28906066454265
H           -7.04965627769898        2.21362781025289       -0.71381172222695
H           -5.07633750602711        3.70911191162534       -0.83522896446581
H           -0.28645182037945        4.23793204899592        0.69574276887015
H            2.00321983755224        3.38151247668227        0.29628847493323
H           -1.99438384554477        0.92879947552827       -1.40879150665104
H           -1.05374417311536       -1.29009611901679       -2.69579477029914
H            0.35793654006104       -3.04820049866299       -3.71302100247211
H            2.79927880231144       -2.92434303299149       -3.57709030415888
H            3.91770528486925       -1.06745339445568       -2.40780011021389
H            3.47214336846235        3.36095483497758       -1.69071289967266
H            5.78153643384386        4.06107393563325       -1.17710916331899
H            7.34381513150992        2.48891910861367       -0.09672257403713
H            4.56702289456545       -0.16427378346777        2.31995432329612
H            4.58103360837364       -1.64834063553622        4.28286075778423
H            6.53237745789356       -3.02971986198774        4.81313428521314
H            8.55769758471884       -2.94769814148933        3.39580808970134
H           10.42475482965268       -2.40372738994221        1.46422367717306
H           11.66059631135641       -1.53510169537421       -0.49408581053192
H           10.61133289665685        0.06282197077717       -2.02440558654016
H            8.31608266314727        0.87075457050293       -1.64454204649600
H            4.28917557979353       -0.50184234762343       -0.05134326514054
