  85
       -137.64115262
 O         -1.5911613797        1.2668622877       -3.5242116721
 C         -1.6884681171        0.6026678710       -2.4566839050
 C         -2.9276315711        0.5409900612       -1.7327745876
 C         -3.0366749317        0.1710322394       -0.3724059046
 C         -4.2502235908        0.1769404706        0.2635932665
 C         -5.4086616698        0.5711538726       -0.4192997688
 N         -6.6559159195        0.5773938876        0.2505138231
 C         -7.3134138468        1.7703490012        0.4971368684
 C         -6.7750281995        3.0040408693        0.1286681332
 C         -7.4650134222        4.1742208339        0.3796926721
 C         -8.6993709811        4.1435042665        1.0105042847
 C         -9.2380806546        2.9320357901        1.4094491076
 C         -8.5535976914        1.7531910700        1.1633456022
 O         -9.1231951213        0.5935796323        1.6049602946
 C         -8.4571874774       -0.5739988232        1.3672608019
 C         -9.0444758569       -1.7450842939        1.8172600474
 C         -8.4323037447       -2.9641411243        1.5802412760
 C         -7.2382185176       -3.0102268703        0.8767901087
 C         -6.6431666444       -1.8477467152        0.4266641588
 C         -7.2299109333       -0.6067812664        0.6783443314
 C         -5.3137744645        0.9890959512       -1.7554219815
 C         -4.1040135321        0.9874080820       -2.3897536207
 C         -0.5029584626       -0.1058483630       -1.9564779130
 C          0.7652424972        0.4327938922       -2.2504686621
 C          1.9277309399       -0.1739732601       -1.8367379809
 C          1.8287300498       -1.3632013070       -1.1226409763
 C          0.5675196721       -1.9586380016       -0.8850552388
 C         -0.5948709303       -1.3416466001       -1.3092425953
 C          0.8264764739       -3.2062861996       -0.2159958668
 C          0.0065023037       -4.2059820771        0.2843427051
 C          0.5908749194       -5.2895773716        0.9137366030
 C          1.9726953609       -5.3717674237        1.0599777043
 C          2.8102991965       -4.3865584074        0.5705184256
 C          2.2308914549       -3.3097227842       -0.0852727483
 N          2.8244322930       -2.1899282049       -0.6352594848
 C          4.1976198865       -1.9317723670       -0.6703590492
 C          5.0819742571       -2.9034378017       -1.1363997317
 C          6.4403868116       -2.6483944800       -1.1456094564
 C          6.9330021657       -1.4348434634       -0.7010208649
 C          6.0534180780       -0.4606155483       -0.2323375001
 N          6.5501973290        0.7572870338        0.2481868628
 C          6.1164411842        2.0179899609       -0.1146634081
 C          5.1612797854        2.3907935762       -1.0485656202
 C          4.9333278148        3.7401761300       -1.2385828636
 C          5.6447098538        4.7037944875       -0.5276196919
 C          6.6160844698        4.3402823182        0.3840466010
 C          6.8600398527        2.9896503491        0.5933444849
 C          7.7807057894        2.2705091863        1.4293531389
 C          8.7403536961        2.6645154512        2.3518756168
 C          9.4526685053        1.6901423538        3.0227468719
 C          9.2067748338        0.3383117842        2.7942887166
 C          8.2577725901       -0.0782150873        1.8801919544
 C          7.5569768111        0.8963517867        1.1842989900
 C          4.6865233168       -0.7095413486       -0.2193613152
 H         -2.1488413343       -0.0792861610        0.1879409811
 H         -4.3235540949       -0.0947329770        1.3078248048
 H         -5.8095121360        3.0340359901       -0.3496749413
 H         -7.0322116819        5.1165273863        0.0824730311
 H         -9.2378010543        5.0578544900        1.2022198624
 H        -10.1865249921        2.8764709430        1.9190345497
 H         -9.9822821781       -1.6775467741        2.3447366505
 H         -8.8928206903       -3.8723712385        1.9347413139
 H         -6.7667959333       -3.9589658073        0.6733908631
 H         -5.7211989715       -1.8870250459       -0.1306268766
 H         -6.2106609379        1.2948478194       -2.2754971928
 H         -4.0095356980        1.3046178689       -3.4169578158
 H          0.8013366906        1.3551302752       -2.8093391089
 H          2.8882252112        0.2555874406       -2.0763467201
 H         -1.5491284994       -1.8271441560       -1.1751530629
 H         -1.0661364511       -4.1327040650        0.1864101659
 H         -0.0300249650       -6.0802326699        1.3079329498
 H          2.4008794321       -6.2218201391        1.5703744962
 H          3.8792636727       -4.4520027318        0.7062079276
 H          4.6967088915       -3.8413105563       -1.5054683317
 H          7.1227023227       -3.3985486041       -1.5162572984
 H          7.9916781741       -1.2282946073       -0.7283800261
 H          4.6201538563        1.6539781503       -1.6212682155
 H          4.1905885462        4.0532398383       -1.9568976422
 H          5.4367398928        5.7487808518       -0.7022864117
 H          7.1796226713        5.0868798352        0.9230075867
 H          8.9183293681        3.7122306601        2.5415693103
 H         10.2047213540        1.9751744932        3.7432570991
 H          9.7670640399       -0.4013653140        3.3469263701
 H          8.0623510538       -1.1284768825        1.7240291965
 H          4.0060966541        0.0304644950        0.1739763966
