85
 energy: -137.646361902687 gnorm: 0.000040752425 xtb: 6.7.1 (edcfbbe)
O           -1.57305398229634        1.73346492644875       -3.25223689924504
C           -1.68495347506983        0.93530373941512       -2.27218282781715
C           -2.93222198251289        0.79234610563838       -1.58028851448870
C           -3.06087178779499        0.24617417158631       -0.28333635692972
C           -4.28623152685705        0.16262279670759        0.32589353602041
C           -5.43358385527306        0.63657396881396       -0.32002303958949
N           -6.69679392151242        0.53266897151658        0.31513815877953
C           -7.36309603905231        1.66833201825640        0.74311025044850
C           -6.81659155837677        2.94373058625671        0.60332482361735
C           -7.51345508400762        4.05696242685490        1.03364090940135
C           -8.76260842155845        3.92314633886732        1.61797676289492
C           -9.31210201656809        2.66320381902226        1.78682885342668
C           -8.62096675360180        1.54174772354679        1.35990532387719
O           -9.20519531898702        0.32517266626128        1.57411206160547
C           -8.53020134974419       -0.78711045140458        1.15742277116271
C           -9.13115036182385       -2.01540808183770        1.37669809658716
C           -8.50807342228340       -3.17826292758973        0.95561043979967
C           -7.28833637566693       -3.10795302457691        0.30225765848325
C           -6.68035181673071       -1.88684267859715        0.08028362067622
C           -7.28092320533391       -0.70624567538738        0.51628815601183
C           -5.31891896255261        1.23360102008762       -1.58227373997506
C           -4.09789983998747        1.32285025488135       -2.19050388277513
C           -0.50573177560457        0.16181823463492       -1.86789755203806
C            0.76689988463491        0.71888521118465       -2.10230262950860
C            1.92398938668858        0.05414754334351       -1.77022417360647
C            1.81565878138737       -1.20839203841203       -1.19895033856216
C            0.54910330705311       -1.81305769328582       -1.02428793091182
C           -0.60860823893701       -1.13968627693535       -1.37108914054226
C            0.79542603565426       -3.13083616391538       -0.50272727681595
C           -0.03470307895104       -4.17210455732259       -0.11508583368014
C            0.53899199699932       -5.32650292865173        0.38295052976867
C            1.92065149798549       -5.44038779775084        0.51137832908584
C            2.76781748176299       -4.41552465840896        0.13318978845372
C            2.19888268660245       -3.26423016706382       -0.39219008817344
N            2.80377748598136       -2.09597005856269       -0.81468581994813
C            4.18144293424475       -1.85837364657411       -0.84975468512288
C            5.03628291581442       -2.78838905962147       -1.43848169298967
C            6.39886826276639       -2.55640015437999       -1.45337327996424
C            6.92384359979557       -1.40461193157852       -0.89646697641887
C            6.07409734712121       -0.47195731493702       -0.30527505750845
N            6.60405920086950        0.68307357525792        0.28305827853893
C            6.18225950675053        1.97996383345074        0.06032742435725
C            5.20989022222321        2.45808764968410       -0.80520338086823
C            5.00092626078326        3.82282809050562       -0.85496951957007
C            5.74743204167996        4.70041305428400       -0.07224930017123
C            6.73613412513487        4.23372677348276        0.77100116239162
C            6.96205627402265        2.86540807219576        0.83873844297589
C            7.89507357856535        2.05363285537425        1.56928542057374
C            8.89018294018764        2.34077416357185        2.49384478733235
C            9.60936440401453        1.29529815891512        3.03803053833107
C            9.33532218628825       -0.02339726064730        2.68288426662884
C            8.35003625578058       -0.33396514087307        1.76507177274739
C            7.64171854173692        0.71413396809175        1.19513106491103
C            4.70330797913153       -0.70054078548824       -0.28202265491258
H           -2.18133298798856       -0.07368858191473        0.25386807634025
H           -4.37593093614322       -0.25028836539831        1.32128517772032
H           -5.83982408688676        3.05070770383861        0.15980301117092
H           -7.07365949617382        5.03451233948115        0.91287370335091
H           -9.30641990218974        4.79286681836819        1.95053927461492
H          -10.27492297558133        2.52516508789264        2.25184765895093
H          -10.08746239511797       -2.03603696992051        1.87400400790298
H           -8.98011436996706       -4.13180248280453        1.13077247759004
H           -6.80538993859386       -4.00928056388460       -0.04146794166970
H           -5.73686015540741       -1.83380873105324       -0.43862502576918
H           -6.20744651276959        1.60828878028617       -2.07042314589635
H           -3.99000632682348        1.77807679151696       -3.16302769826353
H            0.81290236579345        1.70097926333668       -2.54683811666891
H            2.88758950556264        0.49873096274269       -1.96481923167038
H           -1.56640630966224       -1.63002454838337       -1.29247408694051
H           -1.10684249978693       -4.07591109423337       -0.19822784672052
H           -0.08943653801466       -6.15014587773098        0.68753347306817
H            2.34061246009011       -6.34805074692117        0.91913479185096
H            3.83650363108287       -4.50804269480387        0.25467467764580
H            4.62509983114448       -3.67491348968943       -1.89592899287204
H            7.05831745594838       -3.27409849910785       -1.91783669581293
H            7.98512214054074       -1.21273084990197       -0.92970837963984
H            4.64188399513673        1.78981975875167       -1.43323417542215
H            4.24501217423837        4.21665846871433       -1.51784802260153
H            5.55336566152018        5.76060692770929       -0.13704908433225
H            7.32736773347276        4.91478170930737        1.36436438860962
H            9.09053633557454        3.36182716404125        2.78142533620121
H           10.38955696669152        1.49693627199042        3.75682226755467
H            9.90303228766038       -0.82181362520194        3.13762102228194
H            8.13342393512099       -1.36071702081889        1.51120323422331
H            4.04642078900518        0.00422738067991        0.20495296875072
