  126
       -186.53898534
 C         -5.2493434911       -9.5157347887       -0.2694234558
 C         -5.6785386191       -8.0688748015        0.0343684782
 C         -7.1805596731       -8.0185530314        0.3689482292
 C         -4.9005525649       -7.5688325401        1.2362877780
 C         -5.0151287318       -8.2376042387        2.4474187654
 C         -4.3568108436       -7.8131296442        3.5864271733
 C         -3.5707223012       -6.6767210857        3.5275312007
 C         -3.4391639632       -5.9933074170        2.3372218433
 C         -4.0825540346       -6.4356419865        1.1774045628
 N         -3.9248936425       -5.7330018745       -0.0084670423
 C         -3.1124474919       -4.5702303277       -0.0213487393
 C         -1.7251394221       -4.6829823450        0.0131581710
 C         -0.9394347318       -3.5488864253        0.0010989386
 C         -1.5298763919       -2.2868422686       -0.0451117654
 C         -0.7005023470       -1.0830918271       -0.0525737864
 N          0.6208589060       -1.2317036790       -0.0563625096
 C          1.3330280681       -0.1085568301       -0.0555688839
 C          2.7904924616       -0.2199664886       -0.0523085410
 C          3.5811654394        0.9271545641        0.0025939642
 C          4.9564081963        0.8224362329        0.0160721347
 C          5.5612966560       -0.4312253535       -0.0251915952
 N          6.9751874325       -0.5381753430       -0.0025157705
 C          7.6456280065       -0.8908851952       -1.1650369661
 C          6.9257732654       -1.0946677626       -2.3462262425
 C          7.5637073711       -1.4555737930       -3.5140919464
 C          8.9378716488       -1.6116443262       -3.5288321193
 C          9.6549955025       -1.3826391941       -2.3694973143
 C          9.0385802040       -1.0168734425       -1.1805653260
 C          9.8892100368       -0.7460757893        0.0452060083
 C         10.8576334981        0.4068814658       -0.2760621178
 C         10.6775856904       -2.0214986947        0.3943317824
 C          9.0461746626       -0.3560877621        1.2437681593
 C          9.6692687140       -0.0793626356        2.4531324322
 C          8.9547875227        0.2525343753        3.5889563526
 C          7.5736756914        0.2941699466        3.5289091472
 C          6.9293193755        0.0250122102        2.3400300512
 C          7.6508051928       -0.2818171088        1.1822702437
 C          4.7745443792       -1.5786168756       -0.0847793252
 C          3.3991714351       -1.4734868602       -0.0981811831
 N          0.8009222123        1.1103403019       -0.0525122902
 C         -0.5274849466        1.1657767199       -0.0514626911
 C         -1.1623555928        2.4825478456       -0.0445564415
 C         -2.5521717041        2.5882863173       -0.0081918408
 C         -3.1537042691        3.8293114606        0.0051082439
 C         -2.3739095692        4.9826729546       -0.0176348013
 N         -2.9965748918        6.2571015708        0.0011757049
 C         -3.0403346654        7.0068043323       -1.1653235635
 C         -2.4777339031        6.4971197433       -2.3393933005
 C         -2.4992165240        7.2234592857       -3.5112251657
 C         -3.0930729925        8.4722353611       -3.5371322179
 C         -3.6732199386        8.9672571609       -2.3841686207
 C         -3.6656662495        8.2577944869       -1.1909444587
 C         -4.3495730064        8.8458946383        0.0281986005
 C         -3.6886966041       10.1945647007        0.3664537597
 C         -5.8401943678        9.0507591629       -0.2979974401
 C         -4.2350184944        7.9355315198        1.2354750027
 C         -4.7950649061        8.3304950633        2.4427854904
 C         -4.6996839762        7.5573213159        3.5847396837
 C         -4.0114914004        6.3587073791        3.5328800073
 C         -3.4478571000        5.9411522209        2.3458597677
 C         -3.5667689747        6.7080536356        1.1827906013
 C         -0.9857771952        4.8808742847       -0.0560324868
 C         -0.3844139549        3.6392437445       -0.0694898598
 N         -1.3162080200        0.0953731933       -0.0515983924
 C         -2.9194355000       -2.1778246926       -0.0807902063
 C         -3.7051097781       -3.3111939421       -0.0694073626
 C         -4.5678805075       -6.1155325345       -1.1767103463
 C         -4.3343426978       -5.4068301217       -2.3591609894
 C         -4.9654165543       -5.7573216208       -3.5338659248
 C         -5.8377257406       -6.8304839483       -3.5536317877
 C         -6.0489934316       -7.5498181207       -2.3921952039
 C         -5.4251324646       -7.2204000824       -1.1965735045
 H         -5.4271137910      -10.1607444726        0.5862945935
 H         -5.8005641761       -9.9146450595       -1.1161384567
 H         -4.1875402667       -9.5439293020       -0.5066346818
 H         -7.7754950323       -8.3784308486       -0.4657079921
 H         -7.4051221629       -8.6310998564        1.2374917799
 H         -7.4768223557       -6.9939649666        0.5856713453
 H         -5.6392403924       -9.1160137095        2.5108449863
 H         -4.4659535979       -8.3588153809        4.5111214932
 H         -3.0608435184       -6.3166384563        4.4084943281
 H         -2.8347560514       -5.0998526244        2.3052356263
 H         -1.2763521027       -5.6649099613        0.0500417450
 H          0.1366070181       -3.6209228425        0.0247129937
 H          3.0994895177        1.8918550562        0.0322685374
 H          5.5765978874        1.7058218851        0.0608427711
 H          5.8548133106       -0.9617280624       -2.3488039651
 H          6.9847736818       -1.6107332530       -4.4121276341
 H          9.4489974851       -1.8981673240       -4.4351341439
 H         10.7285400933       -1.4911659535       -2.3982274604
 H         11.4936258049        0.1556334452       -1.1200709743
 H         10.2941601000        1.3038980638       -0.5258063032
 H         11.4938984060        0.6275287034        0.5762985435
 H         11.3114317132       -1.8607828445        1.2617037181
 H          9.9875405197       -2.8325813240        0.6189602209
 H         11.3077879621       -2.3271428000       -0.4359874087
 H         10.7458108979       -0.1248873020        2.5172528034
 H          9.4717042934        0.4654570759        4.5120935987
 H          6.9936048037        0.5326006122        4.4077527212
 H          5.8508648093        0.0461185032        2.3079077872
 H          5.2541605370       -2.5460118452       -0.1177342667
 H          2.7774321682       -2.3541583424       -0.1352536483
 H         -3.1437973488        1.6864949287        0.0060932840
 H         -4.2296471902        3.9209071451        0.0345674955
 H         -2.0246659115        5.5176848512       -2.3333366723
 H         -2.0549757442        6.8091153381       -4.4038042566
 H         -3.1147802970        9.0519044142       -4.4472152220
 H         -4.1483789035        9.9357203312       -2.4219606492
 H         -4.1671408153       10.6568483156        1.2250760923
 H         -2.6367846778       10.0420345036        0.6002527000
 H         -3.7577504126       10.8815387690       -0.4721089424
 H         -6.3002708659        8.0947138070       -0.5405513531
 H         -6.3667805125        9.4795489653        0.5499301842
 H         -5.9633984491        9.7157816912       -1.1480639881
 H         -5.3220912448        9.2707523862        2.5002224994
 H         -5.1496858638        7.8932951409        4.5063460626
 H         -3.9086312850        5.7469534405        4.4165627012
 H         -2.9020865630        5.0104841492        2.3183824345
 H         -0.3908619034        5.7823983287       -0.0738417864
 H          0.6898946221        3.5450529704       -0.0927813374
 H         -3.3649032638       -1.1960184608       -0.1127900222
 H         -4.7824251212       -3.2363997363       -0.0968029756
 H         -3.6456438983       -4.5758846612       -2.3564100368
 H         -4.7710504360       -5.1921784065       -4.4330618468
 H         -6.3417822083       -7.1123079326       -4.4653551324
 H         -6.7209396388       -8.3939757858       -2.4245053602
