65
 energy: -113.701821921308 gnorm: 0.000069941317 xtb: 6.7.1 (edcfbbe)
O            0.11860220254089       -1.19702482155878       -5.22742272998100
S           -0.00104992962134        0.02223493768533       -4.47672771364554
O           -0.12104317029855        1.24883267162881       -5.21531702622627
C           -1.29282609501017       -0.10952103562676       -3.23709571138248
C           -2.64799642135496       -0.24213966215378       -3.43082923188147
C           -3.47528648149155       -0.31013016489038       -2.32053913772873
C           -2.93470108518117       -0.25167916258052       -1.03545965981593
N           -3.78147116219798       -0.30681516122355        0.08631668625401
C           -4.59604989710841       -1.42309214212430        0.31106550620340
C           -4.52916889813028       -2.56120332554397       -0.48211338026980
C           -5.34360741412241       -3.65389312924863       -0.22571674892867
C           -6.22855472898209       -3.63151499043254        0.83312707885731
C           -6.28315981684858       -2.51561963224772        1.65448875248329
C           -5.47102377929749       -1.42458291013848        1.40483781486349
O           -5.55666000931577       -0.37311005124631        2.28185603482998
C           -4.75198052780408        0.71335649020603        2.05052199058885
C           -4.86183927102877        1.77103949329912        2.93464642679747
C           -4.10711817953205        2.91963264703047        2.75057606215373
C           -3.25742236931828        3.00752115852247        1.66682214449122
C           -3.14214297599567        1.94902443261515        0.77816403174885
C           -3.86733031822047        0.77940894905949        0.96603344138576
C           -1.55709381341699       -0.13186943760876       -0.85369359302209
C           -0.72899047104149       -0.05546561647076       -1.96386825661421
C            0.72803106324718        0.07519688757384       -1.96355650540361
C            1.55664275466771        0.14061661570645       -0.85306046043227
C            2.93418068305370        0.26209037328194       -1.03426054341026
N            3.78145674640648        0.30604171576875        0.08762326557225
C            4.59641403879409        1.41986381947011        0.32294395698501
C            4.52945360868228        2.56572442518255       -0.45899194238748
C            5.34428899269971        3.65564148332818       -0.19226366473395
C            6.22972414541573        3.62265131350556        0.86589492221422
C            6.28441819521630        2.49873894456879        1.67624463153573
C            5.47188436576965        1.41041015972475        1.41627928401226
O            5.55764116751182        0.35037511027330        2.28291574183817
C            4.75265414818959       -0.73361026824026        2.04125100010306
C            4.86270636860256       -1.79996786264704        2.91487007171920
C            4.10769539581236       -2.94655769604225        2.71983204296021
C            3.25751710328712       -3.02362110392413        1.63563261474174
C            3.14204322765521       -1.95640448888520        0.75749181763506
C            3.86751472933347       -0.78881771953009        0.95655577724668
C            3.47418500190120        0.33315842366642       -2.31894969071584
C            2.64638328182663        0.27618808563037       -3.42947814565747
C            1.29129098719434        0.14175981883567       -3.23644633490051
H           -3.05029195507224       -0.27920314577926       -4.43053349775943
H           -4.54427487535059       -0.39952108477963       -2.44009779893846
H           -3.82983496485312       -2.59982310318750       -1.30263753721912
H           -5.27399196216587       -4.52272117336877       -0.86158002527203
H           -6.86771510345774       -4.47653934694074        1.03375171454679
H           -6.94827109179004       -2.47276780594658        2.50195952609163
H           -5.55126891692405        1.67696610851565        3.75818805578865
H           -4.19831978639222        3.73861049649969        3.44613379338071
H           -2.67867653306990        3.90215035081568        1.49687146660634
H           -2.49000689342826        2.04312708168483       -0.07600224737440
H           -1.15533209780399       -0.10349567752691        0.14754259074797
H            1.15533097832407        0.10241431514556        0.14802926911072
H            3.82974521845256        2.61257580548232       -1.27876739676459
H            5.27460522257816        4.53068249310259       -0.81954179440124
H            6.86920348040759        4.46550006715973        1.07449606259701
H            6.94990688425232        2.44740594127133        2.52294744236031
H            5.55251336101341       -1.71412956624028        3.73899499836415
H            4.19904557825718       -3.77235867316521        3.40725534442710
H            2.67853563609566       -3.91643073703798        1.45713119037494
H            2.48952337182492       -2.04198499425372       -0.09727708272363
H            4.54312800876367        0.42361197138374       -2.43811348180049
H            3.04822904782645        0.32306610302031       -4.42895121218540
