65
 energy: -113.625554808760 gnorm: 0.000157378265 xtb: 6.7.1 (edcfbbe)
O           -0.00176907113008        4.28986260866832       -2.62679371345810
S           -0.00101835476350        3.93136248768448       -1.22797506271218
O           -0.00076556792691        5.02835635902700       -0.28911128062030
C           -1.29555785364144        2.76131205261225       -0.85940452818431
C           -2.64669015527264        2.94778809026466       -0.92959055653823
C           -3.50084038904164        1.90012684794144       -0.59312919390631
C           -2.94013779437156        0.67040063423343       -0.19242626913980
N           -3.82233325304737       -0.39591342666942        0.13420030065312
C           -3.90095261954384       -1.51711316122135       -0.67152250204492
C           -3.13523676725201       -1.65866719808443       -1.82911522476926
C           -3.23882464224939       -2.79631309117702       -2.60487229975704
C           -4.11093897749906       -3.81661815220870       -2.24894003421736
C           -4.89660885340237       -3.68584805683230       -1.11779871573182
C           -4.80356623683267       -2.54665350529249       -0.33426614349271
O           -5.62276210446409       -2.46411985983149        0.75380098206008
C           -5.54123614490838       -1.34588573100277        1.53175952357992
C           -6.37556510302977       -1.27285082405623        2.63615957660645
C           -6.32083650692515       -0.17369856782641        3.47467838145448
C           -5.41646235813186        0.84756871390766        3.21725425192615
C           -4.58019464411888        0.78473383449254        2.11949815706238
C           -4.63967514455025       -0.30125517863988        1.24598673695784
C           -1.58070812704666        0.47285689710850       -0.12309219352131
C           -0.70744049077141        1.52618469589815       -0.46087759386306
C            0.70714811830384        1.52661335378607       -0.46111740894047
C            1.58115505760568        0.47417492026436       -0.12256221404558
C            2.94045789289311        0.67251373835805       -0.19225426750699
N            3.82342567108498       -0.39251412046205        0.13618714314266
C            4.64169153259058       -0.29441886529878        1.24700120593920
C            4.58258137213500        0.79391729754408        2.11769002602399
C            5.41980771092082        0.86008935189888        3.21445826223959
C            6.32488092874919       -0.16019637873027        3.47390961667480
C            6.37920062151873       -1.26163241388322        2.63845252650097
C            5.54389824262457       -1.33805260479638        1.53496316266906
O            5.62495740430332       -2.45842666137466        0.76019548388070
C            4.80419642746060       -2.54482821951009       -0.32628268185408
C            4.89613750965824       -3.68675855879538       -1.10600714176414
C            4.10888436380421       -3.82151206281138       -2.23551567140766
C            3.23626816755349       -2.80232644486749       -2.59387406354971
C            3.13377472907725       -1.66199900284033       -1.82201328963653
C            3.90096179322310       -1.51640183579029       -0.66583981136982
C            3.50029238181216        1.90221774620824       -0.59453308506541
C            2.64538521904111        2.94914122899112       -0.93136594273648
C            1.29438973130332        2.76196534874182       -0.86042605976297
H           -3.04329302967100        3.90061228056040       -1.24385730298530
H           -4.57163697756480        2.00738527741352       -0.65173200630095
H           -2.46560179156059       -0.86347651299889       -2.11491990159934
H           -2.63758364748001       -2.88541156349117       -3.49593152720605
H           -4.18687285971820       -4.70551365533708       -2.85445511860558
H           -5.59536106107668       -4.45262251115582       -0.82419652353860
H           -7.05568278133284       -2.08917923180515        2.81882336631786
H           -6.97446213319758       -0.12018375872963        4.33056232848640
H           -5.35866071805598        1.69811550423244        3.87789224422209
H           -3.87233104734945        1.57481836816961        1.92781558830471
H           -1.19094112879078       -0.48323337698801        0.19412076447612
H            1.19203387979712       -0.48171808529830        0.19603585001716
H            3.87419849993662        1.58319824106965        1.92460966002420
H            5.36225103519391        1.71238917163159        3.87284785832527
H            6.97921742588599       -0.10404457906071        4.32907183650577
H            7.05969948467652       -2.07725815900000        2.82279487425557
H            5.59533382372409       -4.45247515303796       -0.81069511642111
H            4.18384659129917       -4.71255657506347       -2.83797613900578
H            2.63379087103479       -2.89459698279059       -3.48377152461836
H            2.46384257913110       -0.86777522149842       -2.10978386774323
H            4.57099271112984        2.01001810159759       -0.65381535977794
H            3.04131418781826        3.90198378105142       -1.24641922524447
