65
 energy: -113.625489550674 gnorm: 0.000100465373 xtb: 6.7.1 (edcfbbe)
O            0.00449358296862        5.02208022476640        0.37425680595501
S            0.00473119664371        3.90742362410543        1.29216029075089
O            0.00611919237109        4.23961789699443        2.69740786375172
C           -1.29107729633756        2.74581748295167        0.90238691041199
C           -2.64177823561543        2.92188749408228        1.00198085081238
C           -3.49643306690342        1.88003555472573        0.64959264961330
C           -2.93716996051552        0.66646197314496        0.19682859964160
N           -3.81869750924262       -0.39610801582971       -0.13929295727002
C           -4.69698302921826       -0.25928022303470       -1.19995358792414
C           -4.69565116706734        0.86647538249056       -2.02387154803069
C           -5.59466512208413        0.97267015864243       -3.06750549864979
C           -6.50478121536369       -0.04400579899233       -3.32107990808536
C           -6.50040695958300       -1.18317948564462       -2.53582637929690
C           -5.60269443390385       -1.29965560367918       -1.48629652496526
O           -5.62746111907767       -2.45700569354604       -0.76359691217729
C           -4.74546232370419       -2.58357705206738        0.26970629085225
C           -4.77943015427815       -3.76456706332713        0.99392160070403
C           -3.93089185666603       -3.94312778605808        2.07180629035546
C           -3.05698602778155       -2.92773500054804        2.43588181620581
C           -3.01240568714442       -1.74855261495756        1.71858646169523
C           -3.83938103703092       -1.55885284901092        0.61099429027332
C           -1.57813563380148        0.48092646404871        0.09483879998188
C           -0.70403095152909        1.52536142883797        0.45707388829575
C            0.70972354489559        1.52466875484694        0.45582688411898
C            1.58215477600251        0.47941258397893        0.09196772714456
C            2.94157707057492        0.66369542513616        0.19136184209318
N            3.82146819974587       -0.39955385220867       -0.14664497862624
C            3.84267493447663       -1.56243478233046        0.60338466266008
C            3.01789326050441       -1.75151472006495        1.71274543650112
C            3.06297229518171       -2.93084785003530        2.42977134571306
C            3.93518928376752       -3.94699916377461        2.06366125684931
C            4.78156942374749       -3.76909836183248        0.98397048731151
C            4.74709629007530       -2.58795622866995        0.25998142489778
O            5.62693573709052       -2.46203168548143       -0.77520634317946
C            5.60164722216825       -1.30459783700048       -1.49770311769449
C            6.49712063246422       -1.18884611446848       -2.54926004262739
C            6.50077627575834       -0.04956050392345       -3.33435551974404
C            5.59219338712305        0.96796921416765       -3.07859350973080
C            4.69541329142852        0.86250828402065       -2.03296127450426
C            4.69754469455184       -0.26339254227969       -1.20919839926611
C            3.50280069783867        1.87672440711686        0.64315252829965
C            2.64979515342253        2.91933901495227        0.99722656765475
C            1.29873181968248        2.74455300942720        0.90010890223693
H           -3.03785274342698        3.86166646428127        1.35399294054130
H           -4.56613646048387        1.97759986387493        0.73756653738120
H           -3.98338462536655        1.65373565135343       -1.83714277881156
H           -5.58125461291607        1.85404040801493       -3.68897196824724
H           -7.20794882674152        0.04349325161701       -4.13379604947851
H           -7.18205294254257       -1.99814569161282       -2.71890212128300
H           -5.48314188974436       -4.52561917602670        0.69730148877681
H           -3.96017880391878       -4.86479072200917        2.63055087874231
H           -2.40742493680122       -3.05298638232222        3.28784116053592
H           -2.34129041524847       -0.95818781774238        2.01386984888131
H           -1.18842767225721       -0.46061780001028       -0.26341239648864
H            1.19091038639472       -0.46174626663797       -0.26560724165098
H            2.34813711027616       -0.96059856234511        2.00957693874993
H            2.41515548471350       -3.05565165507184        3.28313110852235
H            3.96483547588504       -4.86876285796049        2.62224154945434
H            5.48392699037243       -4.53075912467694        0.68574809731994
H            7.17757409447741       -2.00441551252081       -2.73400184566899
H            7.20217182484294        0.03738774971537       -4.14867467320136
H            5.57822823603503        1.84942759081492       -3.69993549533357
H            3.98432215893190        1.65040681256616       -1.84455431251348
H            4.57277457524485        1.97326803139677        0.72914295785880
H            3.04740210707399        3.85872744842523        1.34856276453349
