  65
       -113.70216968
 O         -0.0083781998        5.0679025046        0.2397278168
 S         -0.0007126122        3.9956016532        1.1963518264
 O          0.0021123607        4.3483235373        2.5894039168
 C         -1.2943655438        2.8051821958        0.8342161710
 C         -2.6569398489        2.9776991080        0.9088647351
 C         -3.4812725830        1.9098195262        0.5909884629
 C         -2.9332482692        0.6909884678        0.1869785029
 N         -3.7784451149       -0.3845530438       -0.1347054262
 C         -4.7390944784       -0.2542826809       -1.1464008027
 C         -4.8115663705        0.8692170203       -1.9601426190
 C         -5.7731738863        0.9656610090       -2.9542465976
 C         -6.6692836110       -0.0635938182       -3.1608308233
 C         -6.5843781150       -1.2086115088       -2.3838546059
 C         -5.6246293174       -1.3107270269       -1.3933178167
 O         -5.5784717802       -2.4894546204       -0.6938356595
 C         -4.6092014394       -2.6186915305        0.2676795224
 C         -4.5658701676       -3.8216674365        0.9487622532
 C         -3.6414146891       -4.0205833046        1.9625486272
 C         -2.7778781027       -2.9993358191        2.3024456617
 C         -2.8162803825       -1.7918428038        1.6215805969
 C         -3.7105728829       -1.5891634456        0.5779174283
 C         -1.5494395610        0.5345222081        0.1041249490
 C         -0.7233405459        1.5965414061        0.4409431843
 C          0.7392977604        1.6011792379        0.4432432220
 C          1.5732925901        0.5421640538        0.1176147254
 C          2.9557740080        0.7089523444        0.2011633793
 N          3.8055186808       -0.3654813424       -0.1137286687
 C          3.7309490832       -1.5666356474        0.6029452467
 C          2.8756933441       -1.7374511803        1.6840843418
 C          2.8294782155       -2.9406543783        2.3718216570
 C          3.6455356801       -3.9890650579        1.9995340157
 C          4.5315326046       -3.8228170308        0.9460985672
 C          4.5835492030       -2.6237762378        0.2589425583
 O          5.5126359763       -2.5257173043       -0.7446961020
 C          5.5837973372       -1.3395280774       -1.4301458171
 C          6.5205015175       -1.2600943174       -2.4444385050
 C          6.6288232303       -0.1089184437       -3.2093025741
 C          5.7792480628        0.9506069603       -2.9651953803
 C          4.8400686408        0.8768116288       -1.9476553419
 C          4.7441174998       -0.2546030194       -1.1478487793
 C          3.4954152140        1.9328877420        0.5998338133
 C          2.6628465179        2.9967978887        0.9108138309
 C          1.3018037096        2.8155660680        0.8314697815
 H         -3.0659170225        3.9246340757        1.2229391961
 H         -4.5538502429        2.0096764076        0.6588503969
 H         -4.1070975510        1.6746131100       -1.8233084413
 H         -5.8099350104        1.8535749456       -3.5659400173
 H         -7.4237542752        0.0095541053       -3.9276879919
 H         -7.2528735628       -2.0411776615       -2.5333798787
 H         -5.2725372184       -4.5878791796        0.6730956049
 H         -3.6126330142       -4.9631665754        2.4854759464
 H         -2.0676861830       -3.1281461619        3.1044838819
 H         -2.1511940109       -0.9967364360        1.9196160954
 H         -1.1405441176       -0.4076446166       -0.2270820164
 H          1.1721618942       -0.4074438684       -0.2017795987
 H          2.2480269461       -0.9204653361        2.0040567158
 H          2.1517269849       -3.0444561870        3.2050092360
 H          3.6097596378       -4.9289502628        2.5270796415
 H          5.2005415502       -4.6120523403        0.6441030580
 H          7.1521526693       -2.1151544586       -2.6224677464
 H          7.3649612688       -0.0542655815       -3.9953715567
 H          5.8354377344        1.8460469555       -3.5646668833
 H          4.1704055710        1.7060555292       -1.7837995135
 H          4.5670473379        2.0392322785        0.6719831658
 H          3.0644628907        3.9476169272        1.2227312860
