  44
  -76.3128161219000       0.174096158265197      !
 O          4.4922187652       -0.9880876800       -1.9443684594
 S          4.0106157105        0.1673724208       -1.2397255818
 O          4.5043976473        1.4522270993       -1.6505730248
 C          4.1664291700       -0.0469876844        0.5377093450
 C          5.3175412370       -0.1396356867        1.2822286243
 C          5.2022980170       -0.3027522008        2.6575998541
 C          3.9505828117       -0.3683058060        3.2500882547
 C          2.7952480977       -0.2744767660        2.4903254957
 C          2.9002624996       -0.1118114987        1.1138065301
 C          1.8025601813        0.0032816117        0.1541590400
 C          0.4438133850       -0.0362101144        0.4351426756
 C         -0.4684086592        0.0833102780       -0.6089021050
 N         -1.8627528176        0.0315771238       -0.3250952274
 C         -2.5024284571        1.2375904341       -0.0417158914
 C         -1.7758552462        2.4288800652       -0.0791779367
 C         -2.3708071230        3.6488664673        0.1904765032
 C         -3.7122609389        3.7146468315        0.5141277648
 C         -4.4483040777        2.5441202577        0.5604797866
 C         -3.8583071569        1.3216450593        0.2834004039
 S         -4.9248165256       -0.0896978429        0.3563655604
 C         -3.7877268507       -1.4245341661        0.1123352839
 C         -4.3140339391       -2.7005181342        0.2321230990
 C         -3.5235537949       -3.8171483632        0.0262691397
 C         -2.1943306863       -3.6431131797       -0.3074547682
 C         -1.6625881729       -2.3704111238       -0.4196202313
 C         -2.4411532542       -1.2316062891       -0.2056499224
 C         -0.0379694830        0.2460008394       -1.9215607296
 C          1.3207319836        0.2872506055       -2.2054873055
 C          2.2134773507        0.1642058529       -1.1674944391
 H          6.2800504942       -0.0852840347        0.7990773155
 H          6.0904529414       -0.3781387039        3.2657708365
 H          3.8728669972       -0.4941176170        4.3196225048
 H          1.8284093418       -0.3272129975        2.9661492990
 H          0.0800533806       -0.1612169828        1.4435134716
 H         -0.7262254998        2.4028432841       -0.3270012791
 H         -1.7733361699        4.5464002408        0.1460590793
 H         -4.1848195442        4.6600152825        0.7279239763
 H         -5.4987152915        2.5619054272        0.8086912990
 H         -5.3585538387       -2.8026480252        0.4846419554
 H         -3.9460763084       -4.8046619966        0.1212288990
 H         -1.5571375467       -4.4961308190       -0.4833072348
 H         -0.6228057142       -2.2610907610       -0.6852589695
 H         -0.7691358168        0.3376042818       -2.7099417274
 H          1.6781114794        0.4109514895       -3.2152220045
  44
  -76.3127230497000       0.157766999571235      !
 O          4.5032837518       -1.1242076636       -1.8543613088
 S          4.0077393874        0.0807889149       -1.2494765518
 O          4.4626488019        1.3322630791       -1.7884083953
 C          4.2011004458        0.0399417910        0.5363856552
 C          5.3680510719        0.0377903631        1.2616962085
 C          5.2828076967        0.0058426762        2.6485053966
 C          4.0440276468       -0.0216358533        3.2706554871
 C          2.8725350136       -0.0188835829        2.5299709609
 C          2.9473052352        0.0114981199        1.1422094289
 C          1.8293449899        0.0160445671        0.1989276282
 C          0.4756593668       -0.0131660582        0.5097446224
 C         -0.4567636395       -0.0076760204       -0.5209261132
 N         -1.8396328427       -0.0350508950       -0.1865252397
 C         -2.4663626165        1.1925490229        0.0299910328
 C         -1.7729114614        2.3786707441       -0.2147011926
 C         -2.3591782617        3.6142069005       -0.0028683371
 C         -3.6634032834        3.7011401028        0.4454173146
 C         -4.3699619085        2.5360089653        0.6851487736
 C         -3.7805419206        1.2976048534        0.4910647573
 S         -4.7618959518       -0.1183468692        0.8987454920
 C         -3.8334214911       -1.4183839362        0.1344243854
 C         -4.4730047262       -2.6408616685        0.0116122464
 C         -3.8061376170       -3.7403731069       -0.4988195336
 C         -2.4862022975       -3.6036104384       -0.8838515288
 C         -1.8494060563       -2.3793186667       -0.7793715899
 C         -2.5088484305       -1.2558180015       -0.2793101503
 C         -0.0517670917        0.0284901741       -1.8533808839
 C          1.2995097971        0.0563790872       -2.1672367287
 C          2.2130512016        0.0497130730       -1.1393835300
 H          6.3197103206        0.0602409742        0.7549324701
 H          6.1839626450        0.0030798937        3.2419763233
 H          3.9894619812       -0.0451744227        4.3487281402
 H          1.9163493784       -0.0401251422        3.0292106429
 H          0.1326031050       -0.0384605336        1.5323726206
 H         -0.7557768234        2.3356386789       -0.5719962141
 H         -1.7860605293        4.5080398934       -0.1956947187
 H         -4.1291980754        4.6598183468        0.6096834806
 H         -5.3886914399        2.5705513050        1.0400452586
 H         -5.4984665997       -2.7195768973        0.3389829201
 H         -4.3117608599       -4.6892010681       -0.5823844608
 H         -1.9386671795       -4.4492992788       -1.2706800073
 H         -0.8174281717       -2.2997353117       -1.0831566869
 H         -0.7984089388        0.0340905957       -2.6331346612
 H          1.6365725571        0.0843893717       -3.1911403049
  44
  -76.3126223667000       0.141822606568992      !
 O          4.4637404670       -0.9088320495       -2.0044258729
 S          3.9952199840        0.2164500472       -1.2439187529
 O          4.4618834149        1.5201246444       -1.6263408408
 C          4.2125271958       -0.0602726808        0.5177845832
 C          5.3899236695       -0.1720786284        1.2169816162
 C          5.3246876514       -0.3913966791        2.5877619230
 C          4.0948570154       -0.4922181862        3.2199598564
 C          2.9126100111       -0.3777973740        2.5055124649
 C          2.9672335213       -0.1588265577        1.1338032662
 C          1.8359028572       -0.0161213108        0.2170855897
 C          0.4861860262       -0.0691145705        0.5417235933
 C         -0.4589568314        0.0830275059       -0.4670423724
 N         -1.8431748627        0.0260996747       -0.1390033672
 C         -2.5209928630        1.2386586604       -0.0136506575
 C         -1.8193520825        2.4386343140       -0.1418836372
 C         -2.4531732498        3.6639347523       -0.0325768824
 C         -3.8121381246        3.7278510829        0.2079805563
 C         -4.5218315862        2.5495593521        0.3557542414
 C         -3.8890690668        1.3209954099        0.2566884919
 S         -4.9080526154       -0.1004343855        0.5308740916
 C         -3.7988031968       -1.4268702445        0.1516717249
 C         -4.3499761581       -2.6980409686        0.1520268264
 C         -3.5712786697       -3.8099166126       -0.1146670091
 C         -2.2290014527       -3.6350894675       -0.3913687423
 C         -1.6766565077       -2.3662799663       -0.4014850551
 C         -2.4435743947       -1.2327745514       -0.1260830622
 C         -0.0708460565        0.2873785557       -1.7885249354
 C          1.2764135188        0.3448166367       -2.1153623934
 C          2.2023811133        0.1922726473       -1.1106463301
 H          6.3341230320       -0.0908532676        0.7023562972
 H          6.2343118475       -0.4842043852        3.1607532506
 H          4.0560124588       -0.6628654730        4.2853618638
 H          1.9638068181       -0.4590614350        3.0126123990
 H          0.1560645935       -0.2280376720        1.5566333595
 H         -0.7567719072        2.4155569992       -0.3266620498
 H         -1.8722952728        4.5672276336       -0.1382502175
 H         -4.3166414607        4.6774984534        0.2881461398
 H         -5.5819912466        2.5654337650        0.5580458934
 H         -5.4023096309       -2.8002590164        0.3694489674
 H         -4.0121948078       -4.7939961369       -0.1076682936
 H         -1.5987480818       -4.4843326170       -0.6061719856
 H         -0.6280692236       -2.2555928238       -0.6296969783
 H         -0.8277863834        0.4016987710       -2.5494582232
 H          1.6006933208        0.5022539441       -3.1315284877
  44
  -76.3123555387000       0.106934982968449      !
 O          4.5165063254       -0.7997166062       -2.0202775181
 S          4.0086266941        0.2845907324       -1.2264312975
 O          4.4636442244        1.6105071497       -1.5405417428
 C          4.1850966891       -0.0625328339        0.5277919776
 C          5.3450695214       -0.1810236045        1.2545571468
 C          5.2472051380       -0.4592784518        2.6126988366
 C          4.0032770518       -0.6124852290        3.2053543164
 C          2.8388218500       -0.4902757407        2.4636524552
 C          2.9262040302       -0.2096736754        1.1049740127
 C          1.8170905934       -0.0414827252        0.1660466483
 C          0.4616971258       -0.1168787758        0.4558845635
 C         -0.4631246775        0.0749202753       -0.5672695165
 N         -1.8559209950        0.0131614899       -0.2854558446
 C         -2.5094868464        1.2249911891       -0.0570341055
 C         -1.7725245443        2.4094958675       -0.0070281420
 C         -2.3823987615        3.6326857394        0.2088117619
 C         -3.7486534287        3.7076201519        0.3997930717
 C         -4.4942129564        2.5427463398        0.3700792513
 C         -3.8890684778        1.3181774828        0.1386562758
 S         -4.9630804614       -0.0875948124        0.0819487282
 C         -3.8028568137       -1.4250340235        0.0953697767
 C         -4.3355091496       -2.6908510834        0.2786055458
 C         -3.5280880349       -3.8132856919        0.2352816451
 C         -2.1762196168       -3.6550560044       -0.0027947323
 C         -1.6384176092       -2.3912805598       -0.1728022909
 C         -2.4331257764       -1.2452272589       -0.1143939196
 C         -0.0457779146        0.3401174421       -1.8675239228
 C          1.3091200113        0.4207710799       -2.1596255486
 C          2.2132594389        0.2293795546       -1.1422712440
 H          6.3010119130       -0.0589692849        0.7707958417
 H          6.1426147193       -0.5562495107        3.2069839547
 H          3.9389593293       -0.8298621266        4.2609819124
 H          1.8784610811       -0.6130348339        2.9398321706
 H          0.1103819063       -0.3190213281        1.4562588149
 H         -0.7030677089        2.3763319902       -0.1436200669
 H         -1.7766712054        4.5255705135        0.2296371236
 H         -4.2324843314        4.6560123364        0.5710523544
 H         -5.5631619479        2.5672503124        0.5164960026
 H         -5.3986391561       -2.7813102751        0.4421269458
 H         -3.9555294744       -4.7937508490        0.3742138255
 H         -1.5261397359       -4.5146511887       -0.0594910928
 H         -0.5816469947       -2.2969350703       -0.3676532726
 H         -0.7854906848        0.4878888934       -2.6392085972
 H          1.6549956293        0.6272405594       -3.1597228674
  44
  -76.3123100863000       0.101913408733699      !
 O          4.6311859770        1.1113976851       -1.7186647245
 S          4.0517517701        1.1439791638       -0.4018741376
 O          4.4760291720        2.2008695836        0.4762595499
 C          4.2042473615       -0.4601822737        0.3957702227
 C          5.3519784623       -1.1003153986        0.7967419645
 C          5.2376438444       -2.3511567360        1.3910714852
 C          3.9886271046       -2.9262307361        1.5673623824
 C          2.8368848542       -2.2727338649        1.1581835870
 C          2.9404369498       -1.0207560331        0.5629791843
 C          1.8492302202       -0.1839378706        0.0625096979
 C          0.5010022029       -0.4955620764        0.0857121829
 C         -0.4368188284        0.3953359691       -0.4550291429
 N         -1.7822634056        0.0873448103       -0.4472578006
 C         -2.7770888626        0.9780111867       -0.9063188071
 C         -2.7628297176        1.4789891913       -2.2038294238
 C         -3.7459330445        2.3572802550       -2.6217756482
 C         -4.7672870273        2.7252555258       -1.7600470241
 C         -4.8244452642        2.1886738301       -0.4871936869
 C         -3.8368224091        1.3121472355       -0.0658945788
 S         -3.9288986423        0.5782632927        1.5461569693
 C         -3.2985299498       -1.0140755496        1.0864388364
 C         -3.8170158192       -2.1602001752        1.6686800193
 C         -3.3479892158       -3.4007226563        1.2782028055
 C         -2.3911147734       -3.4963561718        0.2800728772
 C         -1.8778580080       -2.3536766611       -0.3063644577
 C         -2.2973883414       -1.0978288929        0.1205303834
 C          0.0129548556        1.6324194449       -0.9404146731
 C          1.3604504538        1.9439942155       -0.9575046668
 C          2.2688048023        1.0284436127       -0.4799234240
 H          6.3117918476       -0.6316128595        0.6472637633
 H          6.1232710849       -2.8759106731        1.7151732889
 H          3.9106413748       -3.8991369682        2.0295903580
 H          1.8725968525       -2.7353327908        1.3033765857
 H          0.1731924858       -1.4153180789        0.5412259992
 H         -1.9735414985        1.1779803720       -2.8761015157
 H         -3.7158043316        2.7514307292       -3.6258753436
 H         -5.5295396629        3.4161364487       -2.0849868385
 H         -5.6252533592        2.4444009060        0.1890198803
 H         -4.5803092019       -2.0671328821        2.4253341025
 H         -3.7428556713       -4.2925248514        1.7393296132
 H         -2.0456058210       -4.4646550207       -0.0483275345
 H         -1.1454510955       -2.4241583506       -1.0966652069
 H         -0.6974765074        2.3650728000       -1.2872454457
 H          1.6995790080        2.8944278737       -1.3376029490
  44
  -76.3120095238000       7.414849945078444E-002 !
 O          4.4842611370       -0.8633878914       -2.0237487004
 S          4.0094869105        0.2367032698       -1.2316301952
 O          4.4808157990        1.5515383759       -1.5670336998
 C          4.2098584136       -0.0935289768        0.5229122876
 C          5.3801085109       -0.2281492568        1.2301851761
 C          5.3008767293       -0.4855224193        2.5936350769
 C          4.0647144744       -0.6017630269        3.2106903524
 C          2.8897740037       -0.4640849964        2.4883166713
 C          2.9584597431       -0.2054479273        1.1241822327
 C          1.8365176211       -0.0297244242        0.2020136442
 C          0.4836652378       -0.0797090453        0.5141666768
 C         -0.4532026836        0.1129825788       -0.4944352218
 N         -1.8329343661        0.0558251013       -0.1541421863
 C         -2.5488705438        1.2531069300       -0.0918510708
 C         -1.9541476119        2.4554433479       -0.4753347224
 C         -2.6494920174        3.6510817238       -0.4271063877
 C         -3.9639162182        3.6803872876       -0.0013945748
 C         -4.5643418859        2.5014409550        0.4032477508
 C         -3.8645527565        1.3066358572        0.3761624550
 S         -4.6915638574       -0.1135360219        1.0366716387
 C         -3.7289093352       -1.4168821479        0.3239834399
 C         -4.3020193419       -2.6773803727        0.2940328913
 C         -3.5939757559       -3.7627224790       -0.1907440217
 C         -2.3073403778       -3.5709975371       -0.6580344565
 C         -1.7395177624       -2.3089592457       -0.6489831677
 C         -2.4343311238       -1.2043677511       -0.1549080303
 C         -0.0520821775        0.3481321431       -1.8080956554
 C          1.2980944271        0.4025703512       -2.1225209483
 C          2.2156387190        0.2146648688       -1.1156060778
 H          6.3295886698       -0.1340471501        0.7275632907
 H          6.2046714960       -0.5954816984        3.1728472271
 H          4.0149766551       -0.8027263355        4.2703834976
 H          1.9357209430       -0.5576785053        2.9832890639
 H          0.1442385404       -0.2661694638        1.5212052348
 H         -0.9272064540        2.4618480152       -0.8050869022
 H         -2.1521472464        4.5602132637       -0.7284988661
 H         -4.5147298032        4.6069894245        0.0300033797
 H         -5.5810931854        2.4945621064        0.7652933047
 H         -5.3061330791       -2.7958718631        0.6715797303
 H         -4.0449438233       -4.7423152734       -0.1992738000
 H         -1.7351087288       -4.4024486450       -1.0400458842
 H         -0.7375505016       -2.1807796196       -1.0285108648
 H         -0.8008717431        0.4849178404       -2.5738564877
 H          1.6313218059        0.5843690779       -3.1318535143
  44
  -76.3119537345000       6.989777952132861E-002 !
 O          4.6538056477        0.7848637299       -1.8735777326
 S          4.0517572990        1.0250291222       -0.5886314300
 O          4.4760370442        2.1986379104        0.1264684211
 C          4.1644419152       -0.4406443380        0.4458728199
 C          5.2893946086       -0.9946977430        1.0071674185
 C          5.1443034127       -2.1321712660        1.7919687214
 C          3.8887949568       -2.6863869000        1.9881964631
 C          2.7603501988       -2.1213884605        1.4148977427
 C          2.8937031856       -0.9789285955        0.6342053174
 C          1.8246880144       -0.2178838399       -0.0141315161
 C          0.4717482510       -0.5064468605        0.0205915466
 C         -0.4474444928        0.3502943371       -0.6025248054
 N         -1.7982717616        0.0688590553       -0.5433556443
 C         -2.7995843925        1.0098725944       -0.8729078539
 C         -2.9029319847        1.5552632955       -2.1478923622
 C         -3.8716690009        2.5038743052       -2.4237137303
 C         -4.7664305405        2.8964032516       -1.4411840695
 C         -4.7215515826        2.3061824048       -0.1918763307
 C         -3.7486424389        1.3592037648        0.0863259940
 S         -3.7315259870        0.5509862908        1.6646566717
 C         -3.2169261402       -1.0423411737        1.0798758657
 C         -3.7341689780       -2.1955681900        1.6495031967
 C         -3.3402913977       -3.4320229663        1.1723255739
 C         -2.4475996035       -3.5157098431        0.1147941289
 C         -1.9344067211       -2.3659730551       -0.4569811138
 C         -2.2964042569       -1.1169771128        0.0370659795
 C          0.0273305984        1.5189036376       -1.2145508066
 C          1.3822198670        1.7937686143       -1.2671712686
 C          2.2692907225        0.9195131924       -0.6852066376
 H          6.2544579617       -0.5432004162        0.8395660685
 H          6.0106796821       -2.5828936438        2.2513817784
 H          3.7865840436       -3.5699149970        2.6007886029
 H          1.7901119787       -2.5639162735        1.5813813682
 H          0.1197913245       -1.3747229857        0.5543073231
 H         -2.2199561366        1.2315168756       -2.9185691254
 H         -3.9290595589        2.9343373427       -3.4116339533
 H         -5.5147067297        3.6438439164       -1.6541364379
 H         -5.4314544617        2.5721148783        0.5758447706
 H         -4.4370635518       -2.1115016695        2.4636226458
 H         -3.7387099477       -4.3299570086        1.6185492135
 H         -2.1525753466       -4.4800371831       -0.2697093420
 H         -1.2418345669       -2.4224224194       -1.2835775660
 H         -0.6649221994        2.2316506366       -1.6304804250
 H          1.7427430339        2.6878823777       -1.7502289946
  44
  -76.3118614282000       6.339315128703964E-002 !
 O          4.4740952522       -0.7521708649       -2.0674056942
 S          4.0045451303        0.3084364480       -1.2192907393
 O          4.4870640003        1.6355974387       -1.4832668824
 C          4.1982607711       -0.1214215670        0.5146902941
 C          5.3654804082       -0.3089270492        1.2147586673
 C          5.2807934986       -0.6489270876        2.5596734977
 C          4.0423822980       -0.7918724686        3.1661761402
 C          2.8704627441       -0.6004224567        2.4512098605
 C          2.9446514673       -0.2599807142        1.1055211641
 C          1.8262848376       -0.0270059398        0.1916444709
 C          0.4732320491       -0.0945209127        0.4959822751
 C         -0.4613068161        0.1425845660       -0.5079081648
 N         -1.8477652275        0.0601950086       -0.2063211877
 C         -2.5525261915        1.2590038254       -0.0873742578
 C         -1.8703282224        2.4733910098       -0.1831271105
 C         -2.5302465409        3.6860608797       -0.0898412819
 C         -3.8963898402        3.7236389717        0.1130195807
 C         -4.5857202596        2.5314783536        0.2415176890
 C         -3.9280725239        1.3151061732        0.1495428892
 S         -4.9329713732       -0.1232025192        0.3787599622
 C         -3.7532306028       -1.4312248918        0.2075871207
 C         -4.2544255011       -2.7158040879        0.3471248812
 C         -3.4340847473       -3.8190786605        0.1973081537
 C         -2.1023253228       -3.6226564008       -0.1137158558
 C         -1.5980877620       -2.3415808553       -0.2521628615
 C         -2.4028215010       -1.2139277805       -0.0768439296
 C         -0.0550781694        0.4525354509       -1.8033141488
 C          1.2963072082        0.5315610642       -2.1078842308
 C          2.2102885955        0.2891348015       -1.1097347506
 H          6.3169917128       -0.1931067337        0.7207164865
 H          6.1822518262       -0.8031494698        3.1323369527
 H          3.9883027318       -1.0580148792        4.2111778912
 H          1.9144478922       -0.7172162603        2.9374674566
 H          0.1314534503       -0.3341340855        1.4911622630
 H         -0.8017765669        2.4724555930       -0.3304054292
 H         -1.9638823970        4.6005429605       -0.1761950494
 H         -4.4214078288        4.6630882969        0.1805224704
 H         -5.6506288979        2.5255495317        0.4180429845
 H         -5.3036645277       -2.8340065831        0.5712734915
 H         -3.8359617541       -4.8132129657        0.3113612772
 H         -1.4427718845       -4.4649498999       -0.2554707829
 H         -0.5580520432       -2.2183902542       -0.5099264699
 H         -0.8019463853        0.6327277091       -2.5613945212
 H          1.6332089611        0.7703343587       -3.1038917945
  44
  -76.3117671438000       5.737361714401738E-002 !
 O          4.5895511869        1.4299177789       -1.5259633580
 S          4.0316764958        1.2508676162       -0.2116640114
 O          4.4435537236        2.1765258455        0.8094305380
 C          4.2357638227       -0.4453006768        0.3478681443
 C          5.4070777788       -1.1138758699        0.6098014750
 C          5.3332654711       -2.4363214805        1.0296398445
 C          4.0994950695       -3.0499278837        1.1813467397
 C          2.9235315088       -2.3663298146        0.9149373424
 C          2.9865015256       -1.0448198705        0.4883711264
 C          1.8668261537       -0.1757692241        0.1229248597
 C          0.5262210306       -0.5239669674        0.1194135013
 C         -0.4340652500        0.3895030734       -0.3351940217
 N         -1.7738944197        0.0594213475       -0.3870438535
 C         -2.7382019382        0.9325219048       -0.9352898619
 C         -2.6151622346        1.4152153889       -2.2342612122
 C         -3.5714520736        2.2681782041       -2.7526869165
 C         -4.6718030792        2.6298140918       -1.9906651215
 C         -4.8286519878        2.1193316955       -0.7154046034
 C         -3.8665808245        1.2690755226       -0.1924116546
 S         -4.0663625238        0.5798238597        1.4294938795
 C         -3.3825040507       -1.0151433184        1.0649467560
 C         -3.9308125951       -2.1470572723        1.6472791431
 C         -3.4334710757       -3.3956810335        1.3235935473
 C         -2.4243321210       -3.5133675438        0.3814824520
 C         -1.8818139014       -2.3845769349       -0.2067888467
 C         -2.3197552138       -1.1182586557        0.1674941499
 C         -0.0183348201        1.6833499663       -0.6877249337
 C          1.3178240190        2.0362292612       -0.6619654669
 C          2.2512706038        1.0996229082       -0.2827997514
 H          6.3539414683       -0.6130693501        0.4841357196
 H          6.2383054547       -2.9861093417        1.2379263029
 H          4.0527835014       -4.0773913729        1.5106648212
 H          1.9719793246       -2.8605397324        1.0378713602
 H          0.2267875687       -1.4925666972        0.4826839272
 H         -1.7578108789        1.1248819346       -2.8228879598
 H         -3.4583862914        2.6479057219       -3.7564004530
 H         -5.4147882303        3.2995422288       -2.3948892092
 H         -5.6872232652        2.3769558156       -0.1150756693
 H         -4.7409468952       -2.0361502427        2.3511506402
 H         -3.8503519810       -4.2760546002        1.7874057149
 H         -2.0624061178       -4.4890026131        0.0948915177
 H         -1.1211130295       -2.4791109427       -0.9668704152
 H         -0.7510231601        2.4237001735       -0.9660571876
 H          1.6294420917        3.0317230069       -0.9348561553
  44
  -76.3111072485000       2.853943353208918E-002 !
 O          4.6002573066        1.6670844130       -1.2824622841
 S          4.0053427767        1.3184165573       -0.0196840616
 O          4.3501800300        2.1297447170        1.1169656097
 C          4.2487533397       -0.4257505118        0.3412438711
 C          5.4357137581       -1.0939443291        0.5206552478
 C          5.3940055999       -2.4617873498        0.7614703590
 C          4.1755816502       -3.1201549873        0.8225000353
 C          2.9835460535       -2.4360320625        0.6428838448
 C          3.0142950729       -1.0685634093        0.3945702155
 C          1.8753756052       -0.1906261110        0.1207461643
 C          0.5421286015       -0.5656935601        0.0792428168
 C         -0.4341452469        0.3638781409       -0.3001661968
 N         -1.7704151034        0.0238029978       -0.3909450898
 C         -2.7126261487        0.8996197566       -0.9711243958
 C         -2.5415577907        1.3716934532       -2.2685685501
 C         -3.4813802318        2.2147727730       -2.8307161274
 C         -4.6106693048        2.5790240057       -2.1133254107
 C         -4.8078979890        2.0892753986       -0.8354344002
 C         -3.8617240337        1.2497216070       -0.2680771929
 S         -4.0992908374        0.5990252366        1.3647629964
 C         -3.4143461621       -1.0064850425        1.0524792428
 C         -3.9805795995       -2.1191545061        1.6539472093
 C         -3.4921560660       -3.3797156172        1.3650210512
 C         -2.4773056161       -3.5282683611        0.4339356334
 C         -1.9157891431       -2.4181517831       -0.1725639908
 C         -2.3389310280       -1.1390065480        0.1731001040
 C         -0.0436270424        1.6898606901       -0.5469604842
 C          1.2825261673        2.0707162070       -0.4697577972
 C          2.2328538123        1.1255457569       -0.1594094510
 H          6.3701105921       -0.5581916748        0.4651992780
 H          6.3120815275       -3.0125077516        0.8977949537
 H          4.1538799380       -4.1837894983        1.0087456819
 H          2.0446363371       -2.9660851433        0.6909874912
 H          0.2632320124       -1.5680982702        0.3552606583
 H         -1.6589149932        1.0818269894       -2.8188842147
 H         -3.3330776996        2.5847869171       -3.8334565016
 H         -5.3426730677        3.2382782385       -2.5532213890
 H         -5.6852422779        2.3560024743       -0.2671559016
 H         -4.7988120808       -1.9837959525        2.3440842125
 H         -3.9225180562       -4.2449465349        1.8447174887
 H         -2.1252515431       -4.5139038832        0.1701650371
 H         -1.1557141731       -2.5402310614       -0.9290376655
 H         -0.7917372427        2.4311035597       -0.7792435615
 H          1.5740396255        3.0929855789       -0.6503942888
  44
  -76.3109479956000       2.411336295716959E-002 !
 O          4.3441159658       -1.6008155017       -1.5814603965
 S          4.0027250483       -0.2495167970       -1.2317542305
 O          4.6044593316        0.8084087477       -1.9948917122
 C          4.2037414667        0.0281411513        0.5319464391
 C          5.3718132072        0.0616752884        1.2545726735
 C          5.2958448445        0.3091184712        2.6199422826
 C          4.0652132683        0.5206753272        3.2223904735
 C          2.8920257306        0.4799924498        2.4852920711
 C          2.9567534585        0.2248508032        1.1202980399
 C          1.8361170839        0.1362961270        0.1836365746
 C          0.4847597397        0.2066980326        0.4950089040
 C         -0.4551503682        0.0776140584       -0.5251777012
 N         -1.8446155545        0.0691008094       -0.2411471040
 C         -2.4695147844        1.2310437703        0.2145828106
 C         -1.7212221203        2.3618727173        0.5436413026
 C         -2.3227565935        3.5132583110        1.0211434071
 C         -3.6931644328        3.5701410344        1.1895206685
 C         -4.4564241685        2.4735809908        0.8316832121
 C         -3.8595134080        1.3277269858        0.3320287030
 S         -4.9571620758        0.0592970204       -0.2354223917
 C         -3.8620407610       -1.3275590044       -0.3028574019
 C         -4.4446678845       -2.5828316957       -0.3750774084
 C         -3.6632477532       -3.7210937005       -0.4556223143
 C         -2.2872344050       -3.5928700509       -0.4308897308
 C         -1.7033499159       -2.3420354422       -0.3412438274
 C         -2.4743011981       -1.1789134431       -0.3004700557
 C         -0.0499052444       -0.1077315905       -1.8451662985
 C          1.2988287642       -0.1935922774       -2.1568820556
 C          2.2165548187       -0.0748703873       -1.1400238545
 H          6.3167834478       -0.1009144345        0.7611121890
 H          6.1977553503        0.3394627286        3.2115628239
 H          4.0183279832        0.7199687327        4.2825468591
 H          1.9427692802        0.6484215363        2.9698849392
 H          0.1523728642        0.3285452757        1.5147131082
 H         -0.6517124337        2.3529486133        0.4050988020
 H         -1.7075572523        4.3672261714        1.2602582971
 H         -4.1680061669        4.4590751124        1.5731772874
 H         -5.5323276203        2.4978591259        0.9140081386
 H         -5.5218343171       -2.6501027403       -0.3810174173
 H         -4.1272860976       -4.6916559189       -0.5293930916
 H         -1.6542314180       -4.4655564635       -0.4762672462
 H         -0.6274777154       -2.2693027285       -0.3082470589
 H         -0.7992944483       -0.2084047448       -2.6152657120
 H          1.6301563472       -0.3550720769       -3.1700827564
