105
 energy: -158.727639858303 gnorm: 0.000061113939 xtb: 6.7.1 (edcfbbe)
C           -9.82401247189574        0.12690074240802        4.35821096310162
C           -8.90033004570504        0.29013791701932        3.18870315498179
C           -7.52653151357780        0.39973152863389        3.35965589773907
C           -6.68149012028041        0.56989828606873        2.28006446073428
C           -7.19220143121787        0.62619373400739        0.98395693090378
N           -6.32528577199781        0.77614431754653       -0.10090423729429
C           -6.70272706154145        1.44031408805640       -1.27028844172103
C           -6.15368171803130        1.05655314228395       -2.49445766063147
C           -6.49927318170565        1.71896329458395       -3.65458436646714
C           -7.40408674465364        2.77505040923661       -3.64066470904738
C           -7.78606266146194        3.47042946796728       -4.91274097631625
C           -7.94694939428531        3.15369015781793       -2.41908657290770
C           -7.60162818976739        2.50683622520307       -1.24863111162249
C           -5.02270332082663        0.24008950616539       -0.01224112348175
C           -4.84989766360470       -1.14274572851911        0.18126449275907
C           -5.94681637594598       -2.04062535074369        0.23567841150306
C           -5.76117166160154       -3.37294800083566        0.44662434032962
C           -4.46368273874634       -3.88965137571609        0.62919214928638
C           -3.38219016567200       -3.06674377680155        0.55251104928789
C           -3.52900251425133       -1.67727470024083        0.29830155571672
C           -2.41770609499354       -0.83251179223470        0.16705951692431
C           -1.05243565399848       -1.39438212603095        0.26104788715839
C           -0.25699866823029       -1.13039288614854        1.37481919380475
C            1.01873621228611       -1.65132730011714        1.45604598484762
C            1.52209636073728       -2.43720585109764        0.42560126604877
P            3.21732006559486       -3.06433973299186        0.66370272029788
O            3.38826584606332       -3.78432843120008        1.94085924796467
C            3.62098868366013       -4.08293727379539       -0.78930969197534
C            3.84898875687007       -3.53402274918994       -2.04565862991952
C            4.15236817032713       -4.36350911911656       -3.11020880277682
C            4.22901836495665       -5.73573178513094       -2.92460135188137
C            4.00554892303089       -6.28298962058671       -1.67130173912370
C            3.70365106348812       -5.45613606968954       -0.60332386280586
C            4.26464214843018       -1.58021236611561        0.54032681573699
C            5.44882703531809       -1.56755134791120        1.26572760066917
C            6.28564500588321       -0.47052305561613        1.21960976049539
C            5.94593167584944        0.62899707389690        0.43221846093178
N            6.78583165965316        1.74632571718923        0.38153921929560
C            8.14913944559071        1.72641448361440        0.14909497376849
C            8.98160843888351        0.65471607878729       -0.14090015362320
C           10.31941170560424        0.91877000397550       -0.36738458233493
C           10.82336029305771        2.21681137180576       -0.31831790569622
C            9.99535943547226        3.28986205904273       -0.05388003499298
C            8.64710827541900        3.04915431497485        0.17807732919234
C            7.52508556689698        3.90316924516493        0.45525515213591
C            7.38990751848686        5.27463923301050        0.62975416015791
C            6.14042060261124        5.78462479645802        0.92242702680279
C            5.03749831362365        4.94379789980574        1.05582118644442
C            5.14736289807690        3.57629711100931        0.88645919996516
C            6.39582270056446        3.06035335193671        0.56872044628324
C            4.75841450286746        0.61345140191569       -0.29902792071644
C            3.92150350449342       -0.48289138339648       -0.24031320558631
C            0.73477752571489       -2.71109821828346       -0.68290856610367
C           -0.54567445717848       -2.19291665074305       -0.76064372103010
C           -2.59155172332006        0.54153332426956       -0.05267930272995
C           -1.48454454130914        1.41600040206059       -0.21622031404851
C           -1.65842991710972        2.75595280327582       -0.37967805427875
C           -2.95481155732352        3.30638509756281       -0.37893746609863
C           -4.04416474239805        2.49866014423658       -0.25692887633926
C           -3.90896159717207        1.09319713078841       -0.11789178233170
C           -8.57122029357518        0.50129178939890        0.80476743837188
C           -9.40444665526805        0.34348270626191        1.89286533001002
H          -10.38274270774491        1.04785659613666        4.52914514097024
H           -9.26801930463717       -0.10878587551343        5.26231571322781
H          -10.54376733088689       -0.66837284041080        4.17056139403181
H           -7.10638700637429        0.35873452282403        4.35488327216069
H           -5.61587946720613        0.65830569294670        2.43575122259521
H           -5.45245398138459        0.23514788802724       -2.52714110191042
H           -6.06246563416449        1.40542232937435       -4.59237890724297
H           -8.30788683213951        4.40150409999710       -4.70519034257070
H           -8.44355560851145        2.83440691736539       -5.50677443628643
H           -6.90327401237477        3.68742899373869       -5.51183980453579
H           -8.64479726402729        3.97835857375645       -2.37723030760676
H           -8.01869364545337        2.83652179682915       -0.30791988281833
H           -6.94491027262651       -1.65431803743166        0.10055021009614
H           -6.60882726135525       -4.04157132843829        0.47958365692351
H           -4.33434126813922       -4.94446010280113        0.82336282010652
H           -2.38664854482074       -3.46310712523874        0.68768919747804
H           -0.64843311879609       -0.51851903998026        2.17473566122332
H            1.64330252321932       -1.46194998949175        2.31965088403879
H            3.79238752566701       -2.46409287229115       -2.18339871323291
H            4.33150239484119       -3.93959657857549       -4.08750754404802
H            4.46699303446401       -6.37930812712095       -3.75869972671448
H            4.06840304435441       -7.35143263744377       -1.52545451966979
H            3.53380941942605       -5.85649367163631        0.38672170507436
H            5.68877697463506       -2.42278729213721        1.88230108167792
H            7.19313507818065       -0.44943336434408        1.80406758171971
H            8.59940337658969       -0.35335051575354       -0.19871359061909
H           10.98795918713581        0.10021982551877       -0.59125482724692
H           11.87536389211832        2.38209208509914       -0.49908465800661
H           10.38287036529945        4.29743271658841       -0.03159178501642
H            8.24808033697632        5.92417396873219        0.54338035149330
H            6.01344487605478        6.84832058799059        1.06074520135833
H            4.07534018028185        5.36920379033566        1.30162110035827
H            4.28939531422875        2.93341516582501        1.01286290377365
H            4.50462427574341        1.46018260267710       -0.91918553773487
H            2.99562869473250       -0.48752748314917       -0.79770802760912
H            1.12192881442750       -3.32764437287018       -1.48176648539254
H           -1.16176764380300       -2.40240875190198       -1.62331226878535
H           -0.49100800410263        0.99326720930925       -0.20813675601018
H           -0.80542247808123        3.40736416309635       -0.50251555584431
H           -3.07904875192928        4.37466125072477       -0.47901767005471
H           -5.03273992812629        2.93030411999478       -0.25913896264542
H           -8.98391059598045        0.51488074381919       -0.19384730878020
H          -10.46934860296932        0.24748410238215        1.73291628144567
