105
 energy: -158.666533981776 gnorm: 0.000022148233 xtb: 6.7.1 (edcfbbe)
C           -9.15728826407535       -4.89368079409247        2.73669431826255
C           -8.24183935240666       -4.26989546466174        1.72980540484165
C           -7.19592219722897       -3.44654246649643        2.14053380134363
C           -6.35263954902963       -2.85306884591234        1.22648583674077
C           -6.53144700710671       -3.06870407252176       -0.14311938006868
N           -5.66130767452515       -2.47002898002969       -1.05200844033011
C           -6.08454418393434       -2.09351019466250       -2.32472519517015
C           -5.17823769331157       -2.11479804120698       -3.38753888109778
C           -5.57726404411024       -1.73448447721386       -4.65214973558484
C           -6.88256694891126       -1.32478681241547       -4.90336519381519
C           -7.32438610567828       -0.93319847887544       -6.27895900575842
C           -7.78049980482556       -1.29990223018710       -3.83867800501142
C           -7.39536166309784       -1.67128588709993       -2.56828757111800
C           -4.33245741717420       -2.24211991782137       -0.67602884246456
C           -3.52435643813750       -3.34384964506662       -0.25552330176296
C           -3.98722261371790       -4.66380212438270       -0.29534355343624
C           -3.16564357256616       -5.73376291079642        0.03350657107622
C           -1.84546609191965       -5.50995084710459        0.37191035266317
C           -1.35010594586594       -4.21346006503262        0.38896919609225
C           -2.16599574418243       -3.10866578242574        0.11304382502172
C           -1.64306600850797       -1.77988479823124        0.09907380978861
C           -0.26285334871536       -1.54001355108857        0.50156180742372
C            0.20527853928011       -1.95734817385652        1.75518084042957
C            1.50579061366682       -1.71247951206703        2.13891814447397
C            2.38325571959615       -1.06232877004624        1.27684958056841
P            4.06891241197509       -0.73699347049926        1.85101751598332
O            4.28692362288525       -1.10006773046437        3.26620799504224
C            5.21779744620215       -1.60272436548172        0.72751690373641
C            6.56932522323379       -1.32209498872248        0.88753065735354
C            7.50957554689248       -1.98153717781298        0.11778992519356
C            7.09920166996494       -2.92678687907953       -0.81046393507167
C            5.75280698084449       -3.21383435114029       -0.96368397181758
C            4.80856134859816       -2.55463906526420       -0.19360703718306
C            4.33154140846263        1.03550409082306        1.52381689211993
C            4.03215702868259        1.91648416475852        2.55557118164152
C            4.15096079626332        3.27901514732794        2.36999701774248
C            4.56411063950586        3.77646029688547        1.13465206706644
N            4.67810314463211        5.15708274964218        0.93447970899017
C            5.78174769122876        5.81306807320686        0.42159248610542
C            7.01469210673245        5.30340581146497        0.03986066157713
C            7.96771419955409        6.19398463917698       -0.41737469355980
C            7.71115262425766        7.56176001955286       -0.48785907016837
C            6.49417262822242        8.07723468900282       -0.08752784785789
C            5.52040524968737        7.20178249452309        0.37624066243670
C            4.18767333522796        7.38383334364539        0.88205793961631
C            3.37752304542655        8.49799673499895        1.06116665275209
C            2.10421981764570        8.31674391893601        1.56397957352310
C            1.63077641269208        7.04317308303281        1.87302275984538
C            2.41765130548330        5.91960636608843        1.70273326175021
C            3.70657346213728        6.09826228568338        1.22060354628194
C            4.86573034796747        2.89214137516033        0.09982364905335
C            4.75045474425152        1.52989811011353        0.29467191938379
C            1.93464268823770       -0.64560318856082        0.02468510414589
C            0.63155697328795       -0.87747007244075       -0.35282406092345
C           -2.46346689375152       -0.68190218077641       -0.30273138687162
C           -2.01232254061038        0.64123871015801       -0.21112533040015
C           -2.81648667126798        1.71401874465156       -0.57065172335093
C           -4.11283577170724        1.48733211971697       -0.98950427028323
C           -4.60757630721737        0.19099522124048       -1.04008102440474
C           -3.81002078132803       -0.91205067665833       -0.71538194942687
C           -7.57274373433327       -3.90144888262090       -0.56116404206854
C           -8.41194171142838       -4.48488454197526        0.36613638615718
H           -9.79026845759185       -4.13088328821225        3.19112099288561
H           -8.58470213284255       -5.36548326282129        3.53360781663038
H           -9.79761765345004       -5.63978246282517        2.27322469984045
H           -7.04714720587133       -3.26342316094382        3.19499060145425
H           -5.55216007446679       -2.20796687437058        1.55790755117745
H           -4.16444812432647       -2.44194204700893       -3.20874230321662
H           -4.86221618583345       -1.76406595514611       -5.46165344041658
H           -6.46991859123595       -0.74012378815282       -6.92259150378870
H           -7.94940394349821       -0.04280911587568       -6.24339322139710
H           -7.91406177644678       -1.73555120829594       -6.72427120677631
H           -8.79609495189318       -0.97219897544667       -4.00839560436142
H           -8.09860008202029       -1.61405328048668       -1.75029223464753
H           -5.00360193780700       -4.86871433987388       -0.59184591987975
H           -3.56358843332193       -6.73767542718400        0.00823521722703
H           -1.19089465848807       -6.33573767287163        0.60951478435709
H           -0.30363867598923       -4.05696450290290        0.60179191091809
H           -0.47648847950348       -2.44565723627798        2.43683875391204
H            1.86692185791500       -2.01406748100770        3.11288688662802
H            6.86587789316088       -0.58513632828492        1.62349360759064
H            8.55997836071701       -1.76162408048803        0.24095323647735
H            7.83228269543771       -3.44306730396878       -1.41260220707007
H            5.43531753080785       -3.95455307247883       -1.68311330488173
H            3.75607215782898       -2.77518132795407       -0.30645180853629
H            3.72332657095693        1.51099779811621        3.50948408821084
H            3.93994599338766        3.96319194931409        3.17833926686177
H            7.22968168136346        4.24750395856470        0.10699100833383
H            8.93449889897764        5.82128131959128       -0.72307242818426
H            8.48145167616968        8.22506211163987       -0.85315693253026
H            6.30110926583111        9.13885799361697       -0.12710585809425
H            3.73869886928179        9.48335599564205        0.80723073841899
H            1.45932249855641        9.17031214259043        1.71334989852782
H            0.62509326471614        6.93010826485066        2.25119252179183
H            2.03530509753933        4.93565988394688        1.92978688505240
H            5.17539411712582        3.28116628981940       -0.85879849434439
H            4.99088158307161        0.84645544922818       -0.50723788466999
H            2.61629625597225       -0.14316506442821       -0.64660155211212
H            0.29179333225439       -0.57218709543411       -1.33222773643514
H           -1.02193137030552        0.83642344623880        0.17089886156345
H           -2.42736730754993        2.71959694892591       -0.50531046384536
H           -4.75355327641889        2.31234565017582       -1.26458207618180
H           -5.63507202614831        0.04422125999691       -1.33252884041644
H           -7.70320183744755       -4.10673216049406       -1.61371087631544
H           -9.20800524283067       -5.13000318007566        0.02302750739653
