105
 energy: -158.727676762945 gnorm: 0.000037042262 xtb: 6.7.1 (edcfbbe)
C           -9.28368047537830        1.09874607895441        4.48129306422455
C           -8.41575349078687        0.98273961561155        3.26444674512606
C           -7.03571496564020        1.12000618358010        3.35127806358451
C           -6.23213088193513        0.99988044611189        2.23479004508104
C           -6.79177962263978        0.72583791521009        0.98698480016767
N           -5.96612288709848        0.58674530199575       -0.13071992876771
C           -6.38455536275992        0.93946891785160       -1.41572037411568
C           -5.88300246001141        0.25406551266645       -2.52197543244603
C           -6.26883162599295        0.60849027353443       -3.79968106761568
C           -7.16887687923194        1.64378336091999       -4.01958697645807
C           -7.57315751712729        2.03864819999180       -5.40815659569061
C           -7.66548921390553        2.32439553597464       -2.91298413082145
C           -7.28028066136206        1.98808900074915       -1.63108950015410
C           -4.66134502330480        0.07730527258458        0.04412112873598
C           -4.48187528070588       -1.21606592414850        0.56817113779754
C           -5.57662888072598       -2.06067671260446        0.88548292740141
C           -5.38371344859358       -3.31305238495766        1.38387275533285
C           -4.07963720513835       -3.80228239606019        1.59285879848257
C           -3.00172631012150       -3.03354634728646        1.27722721348292
C           -3.15783557117820       -1.72285244386791        0.75329702281151
C           -2.05218706336983       -0.94419552063895        0.38385781005954
C           -0.68311326898818       -1.47826581565738        0.55823312961481
C           -0.11599947733866       -1.56823840734137        1.82723805895696
C            1.16849973555019       -2.05271447768417        1.98266911691749
C            1.90265718656157       -2.45650621153558        0.87495855664226
P            3.60336276266329       -3.03312176938022        1.17501718548402
O            3.79430801144381       -3.60292547743287        2.52229553981815
C            3.97359216658553       -4.21824414621308       -0.15913721107619
C            4.42045373622207       -3.83206290993047       -1.41624092182997
C            4.66518174184152       -4.79331634586284       -2.38132322442437
C            4.46425788413244       -6.13470992313434       -2.09572802574928
C            4.02410628985523       -6.52108002509363       -0.83953299382330
C            3.77920276837623       -5.56291988255480        0.12785663440655
C            4.66420282278182       -1.58469156721816        0.86392254316594
C            5.86319667112121       -1.51878847764638        1.56239322736627
C            6.72110609219454       -0.45256439448095        1.38152313741746
C            6.38668873986391        0.56347124018045        0.48698704198311
N            7.24869798852404        1.64894343241482        0.29895855290612
C            8.60548243727279        1.57176403388554        0.04214729520154
C            9.40657675003416        0.45560510729833       -0.15310766760696
C           10.74484469724285        0.66184710209734       -0.43105322242298
C           11.27957579900556        1.94523507495328       -0.52277282335570
C           10.48192102298584        3.05995804556445       -0.35509024960702
C            9.13343925241604        2.87790192845203       -0.07576898254335
C            8.03650002192589        3.78301592265173        0.13059664590544
C            7.93381580443720        5.16807962169997        0.15721822752902
C            6.70214315503066        5.73559947222100        0.41773917036677
C            5.58541239006445        4.94014760656634        0.66538957590115
C            5.66263749784782        3.56018970220709        0.64293022192167
C            6.89216073129725        2.98426571186448        0.35608532578486
C            5.18331721742191        0.49600851144541       -0.21428259690479
C            4.32629070219344       -0.56964990007545       -0.02287198169720
C            1.33886242644535       -2.38367876382140       -0.39280995393936
C            0.05516119295090       -1.89562892313370       -0.54698397535794
C           -2.23302806780896        0.34012132463981       -0.14908786264967
C           -1.12930238220278        1.16037875188796       -0.50361433819493
C           -1.30869319678767        2.42392728622366       -0.97656854336098
C           -2.60748809729791        2.95303433582937       -1.10607224372192
C           -3.69290110580340        2.19819012178276       -0.78038706814358
C           -3.55204171795468        0.86800352095512       -0.30772007587509
C           -8.17599825876283        0.57241382206998        0.89616363232585
C           -8.96808612917161        0.70603608494542        2.01855222670160
H           -8.81441750386695        1.72848869173209        5.23379701202127
H           -9.44610692129663        0.11277796408474        4.91959973367742
H          -10.25532673722015        1.51632088165747        4.22606791049561
H           -6.58009854176714        1.33400379843783        4.30797450636825
H           -5.16170307020029        1.11871251361322        2.32225246044788
H           -5.18815745651228       -0.55969695126113       -2.37206891472281
H           -5.86780269865061        0.06203644042504       -4.64179939517022
H           -7.44413941087413        1.20966322896014       -6.10027863606748
H           -6.95585828474793        2.86872355585058       -5.75517974139982
H           -8.61204760246021        2.36131698064269       -5.43229511646531
H           -8.35946588341660        3.14063741956034       -3.05765001939984
H           -7.66300100582271        2.54619420216023       -0.78860693876582
H           -6.57953778205080       -1.70082407860476        0.71723671757046
H           -6.23054636196505       -3.94222107726112        1.61566032071571
H           -3.94300805867030       -4.79655023864524        1.99264479091215
H           -2.00136809584672       -3.41543156674303        1.41817249549473
H           -0.68670408193624       -1.25114092765302        2.68830168309215
H            1.61972651988864       -2.13224335767387        2.96233899279261
H            4.58501087868223       -2.78606873980871       -1.63252416359569
H            5.01524129473661       -4.49503638729337       -3.35884017622920
H            4.65678492364806       -6.88105946840486       -2.85230698077602
H            3.87280714412658       -7.56664257860111       -0.61447815698286
H            3.44635821012140       -5.83939047320363        1.11913526053855
H            6.09982903697223       -2.30774684397366        2.26272186918101
H            7.64209204365542       -0.39000317979372        1.94149503048785
H            9.00022432763466       -0.54323308317407       -0.09997408259930
H           11.38966008270959       -0.19147043571914       -0.58327045996946
H           12.33119635943693        2.06512305661207       -0.73813534119194
H           10.89313256995488        4.05442731993646       -0.44301495651171
H            8.80297261546118        5.78450486423163       -0.01698695895603
H            6.60052790118741        6.81069450958111        0.44140973031250
H            4.63842948559857        5.41185346886383        0.88409592705755
H            4.79467442609305        2.95451982981534        0.85585221983783
H            4.93248803545856        1.27669559899276       -0.91674909981126
H            3.39189581605533       -0.61433140114632       -0.56302681637736
H            1.90156815830919       -2.71588465413170       -1.25364395416015
H           -0.38756374119797       -1.83680571607212       -1.53102851898841
H           -0.13348967477487        0.76133238097004       -0.38148036151047
H           -0.45803436411808        3.03480091064092       -1.24166327100081
H           -2.73608681762056        3.96590822111340       -1.45855528302192
H           -4.68240905807522        2.61797801456043       -0.87041384344445
H           -8.62630470390908        0.33576746980244       -0.05721793962263
H          -10.03812014005220        0.58274260711117        1.92594787547251
