105
 energy: -158.665632388230 gnorm: 0.000044132241 xtb: 6.7.1 (edcfbbe)
C          -10.01286682611378       -0.07981517243591        4.17190457511718
C           -9.04510472983537        0.12902086120751        3.04894033995298
C           -7.67844993627254        0.24059144925904        3.28104176086487
C           -6.79233730145442        0.45070773097972        2.24467561257527
C           -7.25382458888120        0.55284879313545        0.93033400734824
N           -6.34369863630118        0.75763431484246       -0.10462564213275
C           -6.69294767942229        1.47519992280476       -1.24712498608282
C           -6.10250637983369        1.15058575810778       -2.47171621304505
C           -6.42480264051860        1.85799411686641       -3.60971583114023
C           -7.34167671680521        2.90555653856948       -3.57304853552125
C           -7.69777154872334        3.65083016079319       -4.82157327509332
C           -7.92440434087586        3.22594170358732       -2.35103261263237
C           -7.60697883879400        2.53113145983549       -1.20196547999459
C           -5.04968343452244        0.23570562606675        0.00554263881110
C           -4.87359192711678       -1.16337934283926        0.24166893548013
C           -5.94849340756934       -2.05683225146408        0.27907468847966
C           -5.76187907070689       -3.40693145677086        0.55136606135400
C           -4.49273511231495       -3.89088770197951        0.79953680043217
C           -3.40024031157987       -3.03807673719476        0.70758714248074
C           -3.55218663937397       -1.68362572968148        0.38396426405298
C           -2.42790931438898       -0.82214220954245        0.21429511124689
C           -1.07518872266599       -1.36798145297414        0.31248031662722
C           -0.16431395206461       -0.86459266250411        1.25035410399549
C            1.11202519484018       -1.37529085475312        1.33381664854526
C            1.52264273325437       -2.39088150535156        0.47441227327841
P            3.21303165328373       -3.01958935499130        0.70935056015632
O            3.39500635542000       -3.72013809696965        1.99717782785118
C            3.60459909931249       -4.06343119734847       -0.72807958399310
C            3.61656848254372       -3.56403605387269       -2.02518887346525
C            3.92544240742693       -4.40362017991206       -3.07951891502025
C            4.22504690120134       -5.73715556046209       -2.84305942101026
C            4.21847551548733       -6.23425772633272       -1.54984062351988
C            3.90925221691880       -5.39660211962487       -0.49212633832171
C            4.27863607403167       -1.55030937353295        0.55596335817472
C            5.44474896099375       -1.52580199421186        1.30977745430172
C            6.29562637751579       -0.44026627064947        1.24909476198628
C            5.98901380100688        0.63549908137903        0.41707738552794
N            6.84206939633929        1.74244035974180        0.35142301902884
C            8.20952196337760        1.70176146465723        0.14919760800563
C            9.03733707872676        0.61275303271721       -0.08419144767566
C           10.38226840358391        0.85615755951421       -0.29038947608176
C           10.89807919594190        2.15044239864377       -0.27570051250478
C           10.07526521710092        3.23980890699618       -0.06813436061478
C            8.71979810274736        3.02016985225975        0.14165695992165
C            7.60021926581188        3.89387241447042        0.36097538977046
C            7.47317007428099        5.27253954317737        0.47510031171343
C            6.22192056171537        5.80400369340435        0.71759385941372
C            5.10893065733154        4.97819103465684        0.86091598745508
C            5.21048349548237        3.60397462851862        0.75092176983119
C            6.46080894745939        3.06568682018936        0.48110484830447
C            4.82102090282028        0.60743917218420       -0.34457522697174
C            3.96970128226808       -0.47662577106371       -0.27052371234276
C            0.62777859153302       -2.90784446091957       -0.45332322523690
C           -0.65509390187499       -2.40403662127375       -0.52917281476658
C           -2.60895283138885        0.56759348974509       -0.05368850776676
C           -1.52298005633156        1.42478833755335       -0.27331510669063
C           -1.69863710716377        2.78959395630691       -0.46195718431552
C           -2.96899451485984        3.32854343526881       -0.41722614775353
C           -4.06965209471531        2.49653509994688       -0.25056754065603
C           -3.92657337643949        1.11150240691689       -0.12098658138244
C           -8.62560895190323        0.42810789946141        0.68873189598596
C           -9.49915607427761        0.22437789558945        1.73516179627081
H          -10.60400036580595        0.82263051730591        4.33089469769577
H           -9.49212303392427       -0.31660426002988        5.09614333918986
H          -10.70193490115354       -0.88973016269695        3.93788352198588
H           -7.30057327029843        0.17080330112128        4.29090728235790
H           -5.73464231799957        0.54835622419091        2.44084862877920
H           -5.39805277587965        0.33297327084990       -2.51592881981539
H           -5.96224085120614        1.58932765609265       -4.54856335198625
H           -8.17772437739052        4.59771896212942       -4.58719925501075
H           -8.38694008977292        3.05910366464614       -5.42555862666687
H           -6.81038723470671        3.84178759456578       -5.42195627879964
H           -8.62946135045152        4.04285848875699       -2.29447174260032
H           -8.04580139842563        2.81813508621262       -0.25741974844215
H           -6.95067941376198       -1.70080187875852        0.09942206622567
H           -6.61747688663399       -4.06536661113059        0.58667702670619
H           -4.33992192990540       -4.92970509159942        1.05335274494039
H           -2.41146794765955       -3.43086144243426        0.88965297531027
H           -0.48074969012705       -0.08401733495978        1.92745714430064
H            1.81294585901368       -0.99886806295390        2.06892043579906
H            3.38259444428093       -2.52474085265612       -2.20224382099780
H            3.93326275060052       -4.01857145533011       -4.08881179660389
H            4.46569296886518       -6.38938420529360       -3.66967465232263
H            4.45372136663562       -7.27226475843442       -1.36513213646127
H            3.89796142823789       -5.75756681929649        0.52718488529973
H            5.65836450620845       -2.36218065892706        1.96094704987188
H            7.18751787397234       -0.40918451515478        1.85672306983712
H            8.64574026387516       -0.39292059004695       -0.11517714401889
H           11.04732475130152        0.02413903333272       -0.47073922345899
H           11.95541533779115        2.29943310059934       -0.43854094629385
H           10.47240925011092        4.24384929123056       -0.07280409600811
H            8.33871557904151        5.91118801047247        0.38162165906028
H            6.10102964585605        6.87351098114014        0.80812848045973
H            4.14536943775774        5.42083319961301        1.06770097332737
H            4.34425778371317        2.97335479691304        0.88305203997569
H            4.59276731868749        1.43555762557129       -0.99887044526602
H            3.05662184105831       -0.48686688408122       -0.84831625279802
H            0.94148050257325       -3.70101478864186       -1.11819986752534
H           -1.34272279082020       -2.79483689719541       -1.26555446309399
H           -0.52405076240215        1.01715777313836       -0.29310054663224
H           -0.83917314414723        3.42178889722682       -0.63090273925176
H           -3.11914118687683        4.39235003061331       -0.52927668616491
H           -5.05243227709043        2.94039937311568       -0.22780537963043
H           -8.99501456825634        0.46861287392701       -0.32564292010574
H          -10.55568517800693        0.12579052220361        1.53092060990291
