78
 energy: -130.103957058622 gnorm: 0.000030622783 xtb: 6.7.1 (edcfbbe)
C           -3.51284750422988        2.52230094650772        0.40165268778651
C           -4.82315495499406        2.13961654325275        0.61265927446784
C           -5.31390585709223        0.95969933667536        0.04579209215605
C           -6.70462081122084        0.60310451881057        0.25978617666977
N           -7.49936298899943        1.22249511556298        1.09628570217428
C           -8.71231671740938        0.59960708812898        1.00002631313609
C           -9.91197131671906        0.84907640841930        1.66174164730187
C          -10.99020424943718        0.04787788496754        1.35307510081274
C          -10.89761836745939       -0.98264558082817        0.41266655080618
C           -9.71958784870692       -1.24951378588572       -0.25540098880585
C           -8.63082778826936       -0.44786373558410        0.04908001812604
N           -7.33776778890223       -0.42186269486285       -0.39999908359987
C           -4.45690178261226        0.16522121845674       -0.70846231503575
C           -3.12930700459874        0.53974297240628       -0.90122224520983
C           -2.27446680625125       -0.33000284091735       -1.71388664370284
N           -2.89367954078189       -1.02535607742584       -2.67870947882621
N           -2.24324923199057       -1.76936807284763       -3.49588314435148
N           -0.96009318126589       -1.90502107784272       -3.44154308058024
C           -0.26168550665215       -1.31185107856407       -2.47818123755017
C            1.19528876255489       -1.52747818859679       -2.42246900718409
C            1.99415881542178       -1.23179059214750       -3.52226443356016
C            3.37333980078919       -1.22771318100846       -3.39277130834764
C            3.96419995272823       -1.49606739371966       -2.17123222907776
C            3.17284003063298       -1.85765176837761       -1.08274524250058
C            3.75558109133753       -2.09108479479548        0.23318474373240
N            4.65585511978403       -1.32055507845422        0.79209725316837
C            4.88179353417418       -1.84198919087694        2.04260339027355
C            5.73175267498884       -1.41517678429392        3.05775683292970
C            5.74949328895744       -2.15296427773411        4.22273860530127
C            4.94772879267665       -3.28531503151405        4.38933708281525
C            4.09373155332756       -3.72187555400820        3.39624741793379
C            4.06946258414342       -2.98432840515807        2.22346775044850
N            3.35803361496212       -3.10603559142872        1.05521753011249
C            1.79134960975641       -1.90333310392643       -1.22426757778273
C           -0.89049423755468       -0.47004793133320       -1.53766173729157
C           -0.08624124256310        0.12420841954590       -0.45982124844938
C           -0.32258175372012       -0.20747483958846        0.87242451550447
C            0.59274215155470        0.15555673481083        1.84530344241400
C            1.75516907912580        0.82464059402252        1.50265271667091
C            1.97276145187955        1.20683539221815        0.18142116756252
C            3.20270543125137        1.88162835686131       -0.22659508885252
N            3.25766422605421        2.98746259985153       -0.92143683368653
C            4.59492429768087        3.23886093250850       -1.10049122052131
C            5.23879220094823        4.28352398960394       -1.75574985307233
C            6.61727517440662        4.26290245538113       -1.79045114171778
C            7.35320727687718        3.23577564807258       -1.19341257529849
C            6.73528175997115        2.19261287408871       -0.53333915474933
C            5.35013420591773        2.20775444706309       -0.48877520734683
N            4.43128559129082        1.36752978630468        0.08181189837365
C            1.03676748598069        0.87681570963422       -0.78818527987511
C           -2.66253260572807        1.73437982971353       -0.35583206540362
H           -3.14576008642734        3.44492296191141        0.82457835417520
H           -5.49627704129930        2.74011960839419        1.20338669951357
H           -9.98230681029248        1.64493657522566        2.38623334774553
H          -11.93543953385199        0.21593896943967        1.84796405968817
H          -11.77115664663826       -1.58270439081296        0.20521914640951
H           -9.64858940127231       -2.04536834578207       -0.98177420752789
H           -6.94363927466036       -1.01386961967426       -1.11197077627587
H           -4.78657745714944       -0.76113770077342       -1.15314674654853
H            1.52770162058703       -0.97174056816334       -4.46004498444913
H            3.98973734268636       -0.98144581533969       -4.24348548041816
H            5.03489220923966       -1.43854506448059       -2.05040689486722
H            6.35113793568629       -0.54150108007824        2.92872214025778
H            6.39932284593115       -1.85102209725197        5.03020264630371
H            4.99840311708814       -3.83027092006068        5.31955239809263
H            3.47370406291637       -4.59549591163201        3.52579636677715
H            2.70134220354066       -3.83399827924736        0.82364736199839
H            1.17525683429253       -2.17582175938641       -0.37984895363500
H           -1.20257541853071       -0.77614753931589        1.13549271434607
H            0.41186915995589       -0.11286154267581        2.87519589376101
H            2.48887768506939        1.06521788246345        2.25770705604821
H            4.66965054045932        5.07501522388231       -2.21773622900765
H            7.14725358545665        5.05932319927478       -2.29207944015080
H            8.43137626977316        3.26200098641900       -1.25041474221347
H            7.30186732199473        1.39781339784853       -0.07145115894031
H            4.60745705612750        0.42607540189728        0.44769525839054
H            1.21378620875901        1.17826451030402       -1.80980556318606
H           -1.64921380151815        2.05743376645469       -0.53746475473332
