78
 energy: -130.105301917975 gnorm: 0.000093019639 xtb: 6.7.1 (edcfbbe)
C           -3.51938001737548        1.30814564139986       -2.28462733702542
C           -4.81308502278677        1.44695113571608       -1.82008793242646
C           -5.31395202199543        0.56820906640007       -0.85606852342037
C           -6.68639396293758        0.72109146613632       -0.40849666614713
N           -7.43260693483231        1.76478768485725       -0.67004068137826
C           -8.64362559458820        1.52198434293718       -0.08352891273958
C           -9.80102415976217        2.29517719359922       -0.04554943401465
C          -10.88977519904168        1.78321122830210        0.62720600699219
C          -10.84796062415429        0.53451089457624        1.25456832687405
C           -9.71181625458990       -0.24920112384928        1.23229185988876
C           -8.61281035841658        0.25883582200553        0.55803804199685
N           -7.35010855826483       -0.22214868048270        0.33729733388651
C           -4.48383611572011       -0.42827209982021       -0.35208655020056
C           -3.17196344814587       -0.54931739986350       -0.80015332736416
C           -2.34037101014239       -1.62438395062956       -0.24750718775930
N           -2.98273766063677       -2.76067777018129        0.04350593513289
N           -2.34718373511011       -3.79801309244745        0.45601411196118
N           -1.06263808328084       -3.82305592759205        0.54689524763138
C           -0.33495503308757       -2.72275667133282        0.34747010761634
C            1.12235085723496       -2.88609425532413        0.47062822961339
C            1.70681428236441       -4.01063830018308       -0.11097617018320
C            3.08373074030302       -4.13949891056288       -0.14067633095949
C            3.89186851381361       -3.13425334862211        0.35780931422325
C            3.31965996486957       -2.01340367506146        0.96023109185049
C            4.09876100096695       -0.86980154129293        1.39171418330607
N            3.57868571704761        0.20514336986174        1.93077864980508
C            4.61309781453424        1.08318326280592        2.10003054353263
C            4.62488754031370        2.37634667362271        2.61589479743123
C            5.83233027426808        3.04205099585188        2.64614222694111
C            7.01043422889604        2.45014270229254        2.18232458243431
C            7.02363086280432        1.16810888689151        1.66957240681325
C            5.81377238642727        0.49517295013129        1.63258496452109
N            5.45268263152204       -0.75237533248831        1.19923956900876
C            1.93222294016020       -1.92828779688836        1.06541622750692
C           -0.95757579045981       -1.51195806692839       -0.02000280119625
C           -0.24493659895333       -0.22918247681442       -0.08390336484862
C           -0.74296254642040        0.85822157407869        0.63385046524642
C           -0.02680985544946        2.04021134896750        0.68802169282316
C            1.21418977262267        2.13703318997045        0.08725815393551
C            1.73196870622062        1.05278216764171       -0.62169110310441
C            3.08716955986776        1.02953126858915       -1.13428205582967
N            3.61252251253207        0.00728181366641       -1.76285509182899
C            4.92406216560582        0.32871241667791       -1.97912963952018
C            5.94358364012423       -0.39800602983657       -2.58805066552024
C            7.19450457897868        0.17966442385542       -2.64465619522053
C            7.44274000963989        1.45071044942252       -2.11877936994826
C            6.44691808047882        2.19082025327618       -1.51298235645866
C            5.18917590407176        1.61465091612595       -1.44811470933942
N            3.99472098391704        2.03876120902131       -0.93077704290002
C            0.96693801821208       -0.10464304319275       -0.75172324577726
C           -2.69593369435526        0.31361246194493       -1.78528505897568
H           -3.14607449421096        1.97651343489452       -3.04555900702450
H           -5.46465339202497        2.22055076795609       -2.19387246142547
H           -9.83199924944598        3.25833894798641       -0.52995475308219
H          -11.80314148796494        2.35792956561672        0.67419777554062
H          -11.72770956298440        0.17657170903911        1.76860606103588
H           -9.67982225308724       -1.21351987709469        1.71715860126550
H           -6.99534605497500       -1.11880606819564        0.62520324206670
H           -4.82313908533875       -1.11794901006929        0.40567784652674
H            1.07155850296884       -4.76598387583434       -0.54735624945606
H            3.52966621485636       -5.01648463270232       -0.58476587926454
H            4.96405798904998       -3.23034975829900        0.27507034460941
H            3.71547316849345        2.82802428561937        2.98051371813411
H            5.87477544109163        4.04679778940444        3.04043475131012
H            7.93188461397081        3.01085934467883        2.22756487120950
H            7.93313694913078        0.71203178968017        1.30951082914132
H            6.05823837570522       -1.42381556686857        0.75999796629843
H            1.51961993473020       -1.08732570901261        1.59786696239317
H           -1.67991603257509        0.76901149834068        1.16316325774920
H           -0.42787585404642        2.88123853367099        1.23276089071537
H            1.77633028841275        3.05321007539040        0.18384844386518
H            5.74825835515675       -1.37709018871120       -2.99687344579558
H            8.00715388773683       -0.35899582047893       -3.10951233088667
H            8.43884130266307        1.86142286168726       -2.18815443650124
H            6.63864313838322        3.17095382677360       -1.10381059944136
H            3.84247464213450        2.88788057217852       -0.41497423713946
H            1.36225657187812       -0.90986638821970       -1.35011407595577
H           -1.69419623685061        0.19665953282150       -2.16967038388961
