78
 energy: -130.040633751574 gnorm: 0.000072394927 xtb: 6.7.1 (edcfbbe)
C           -5.41608753312970       -3.26786059869991        0.71257268264569
C           -5.56557106455278       -1.89351552800358        0.65100267685778
C           -4.50187847169822       -1.09593061026473        0.21536172017534
C           -4.66720289687973        0.34485053969927        0.16862852373071
N           -5.82676957650881        0.95072176865129        0.27128657891663
C           -5.56561684260019        2.28914879614877        0.20976158948965
C           -6.42152333449679        3.38841571772103        0.26714279237977
C           -5.85381483309527        4.64153259963035        0.19344843336461
C           -4.47119197536579        4.82155699874718        0.06591740207369
C           -3.60261569709126        3.74980872169030        0.00339806893748
C           -4.16904889594590        2.48804558969977        0.07354916383779
N           -3.62720143601718        1.23177609963405        0.04342772868326
C           -3.30379305271770       -1.69381529767881       -0.15431248690953
C           -3.12592839653185       -3.07570173179141       -0.03385371947650
C           -1.86736584727223       -3.71562096951585       -0.35001356429611
N           -1.98266952076467       -5.01809251508110       -0.87660863390272
N           -0.91361198009454       -5.55333495831422       -1.19958901559874
N            0.25267805044805       -5.17991152516279       -1.16104800241790
C            0.55327944950201       -3.90913233080922       -0.63081646536193
C            1.94448708296297       -3.57819278917918       -0.65757878549360
C            2.82958948466657       -4.47172296557928       -1.30353771931835
C            4.17224185486916       -4.19766165100852       -1.41757582231636
C            4.70232989953855       -3.02176537301494       -0.90736007212153
C            3.85385834985721       -2.12621345168130       -0.25121308736270
C            4.36775305452979       -0.87719234350836        0.28751831768865
N            3.68687350163977        0.24106604985955        0.39066400923329
C            4.54367563404462        1.16082202054287        0.94625698158938
C            4.34684342431295        2.49754374884988        1.27989042680021
C            5.41132859337761        3.18079020582151        1.82962489890541
C            6.64598340224634        2.56625906866921        2.05216192926007
C            6.86174492006045        1.24077409855332        1.73197191126058
C            5.79684521050182        0.54910233450585        1.17782161693507
N            5.64948200268291       -0.74232254892156        0.74084398386516
C            2.50313083346329       -2.41138208907361       -0.11087295834340
C           -0.58604477172373       -3.19244868846394       -0.18718272601277
C           -0.50023440080369       -1.90357790327097        0.53605495796351
C           -0.93829938969315       -1.83429369824006        1.85446527230307
C           -1.00285302730948       -0.61240064571840        2.50209283383961
C           -0.62819215077433        0.54633441614575        1.84636347297341
C           -0.14800496616043        0.47736847199877        0.54131383781586
C            0.31518179318406        1.67159851420689       -0.16187562312089
N           -0.40503482459570        2.73200032837617       -0.42227088003194
C            0.43444731539586        3.57873004529034       -1.10537260058603
C            0.20974508739544        4.84804276793865       -1.62791065172889
C            1.26475233779406        5.47450053656197       -2.25725483271290
C            2.51829370004582        4.86785768307702       -2.37427456808517
C            2.76089226043217        3.60604801762740       -1.87034569753293
C            1.70642008983282        2.96771376091888       -1.23669981199987
N            1.58831187567910        1.73877594414934       -0.64311849312529
C           -0.08751711800989       -0.74720307508871       -0.11374100754234
C           -4.21386040291080       -3.85918343499405        0.37756878859382
H           -6.24369113897270       -3.88314470966321        1.03127097155318
H           -6.49167554295042       -1.41247176697632        0.92066039017597
H           -7.48628422050952        3.24943926516704        0.36663895476697
H           -6.48860582338521        5.51433676729297        0.23584938913951
H           -4.07866221488321        5.82640217035064        0.01555781657411
H           -2.53394897036063        3.86396137785292       -0.09542183272043
H           -2.64136008732279        1.03701935551159       -0.00962465670125
H           -2.51425580808769       -1.08850840714740       -0.56804065407714
H            2.42439110616500       -5.38095067100178       -1.71844435480188
H            4.81988424982710       -4.89974708313943       -1.92116517676327
H            5.74854071904497       -2.79359798867946       -1.04311918603477
H            3.39640711739627        2.98006459905189        1.11362029559777
H            5.28870769816949        4.21949491688619        2.09717662717160
H            7.44821600473098        3.14395611710689        2.48517184554271
H            7.81432181166246        0.76404909633923        1.90468948389989
H            6.34002199148479       -1.47371829265244        0.78732769660838
H            1.90493559357634       -1.71421159747717        0.44746144724608
H           -1.24171282579014       -2.73592517076369        2.36383874856008
H           -1.35514608369344       -0.56455911619796        3.52063892210495
H           -0.69018263861613        1.50618489696249        2.33581377197414
H           -0.75687001175331        5.31865163910976       -1.53964137140525
H            1.12359300274184        6.46187986206611       -2.67107717377392
H            3.31427918009152        5.40055056765737       -2.87289082477921
H            3.72792823136471        3.13328385289372       -1.95796811095164
H            2.34288790657206        1.08908962072821       -0.39059180098677
H            0.25184526443739       -0.79206994121091       -1.13930105923098
H           -4.09059878760915       -4.92964079625441        0.43012193843721
