  60
        -95.70249425
 C          2.8181651246        3.6127479500       -1.3092787676
 C          1.4510844882        3.7168697458       -1.1969794227
 C          0.6827696775        2.6309007179       -0.7297809869
 C         -0.7381026599        2.6593143424       -0.6144773078
 C         -1.5216158007        3.8301573324       -0.6801184184
 N         -2.8100770757        3.8126910814       -0.5336890129
 C         -3.4544164148        2.6506925629       -0.3081182423
 C         -2.7029056304        1.4830998894       -0.1604133851
 N         -3.3309044351        0.2692723039        0.0586520514
 C         -3.0034650962       -0.9059325703       -0.5977551020
 C         -1.9920284443       -1.1457013644       -1.5135817947
 C         -1.8925865566       -2.4209203059       -2.0390180236
 C         -2.7763947584       -3.4299993856       -1.6673899308
 C         -3.7899741762       -3.1916069447       -0.7569984509
 C         -3.9115415789       -1.9189461535       -0.2192818132
 C         -4.8228772735       -1.3216987462        0.7218259403
 C         -5.8955530844       -1.8144146434        1.4493354591
 C         -6.5554745640       -0.9615533277        2.3149180451
 C         -6.1445647157        0.3589509176        2.4704266825
 C         -5.0769440115        0.8723883739        1.7557189048
 C         -4.4298140704        0.0293466235        0.8645673248
 N         -1.3960674790        1.4937100476       -0.3094363960
 C          1.3647918833        1.4484593041       -0.3748038958
 C          2.7374426918        1.3609313060       -0.4853431457
 N          3.3919813776        0.1756464707       -0.1049382494
 C          3.0576743727       -1.0987278846       -0.5062812888
 C          2.0778092965       -1.5181875153       -1.3967222584
 C          1.9687972781       -2.8732882485       -1.6420564398
 C          2.8124932365       -3.7957375793       -1.0278773890
 C          3.8039596648       -3.3833354891       -0.1576790354
 C          3.9340507304       -2.0275729488        0.1046779763
 C          4.8338734802       -1.2602721851        0.9212289579
 C          5.8851624031       -1.5966016174        1.7610954674
 C          6.5429469477       -0.5849805187        2.4355673639
 C          6.1535345037        0.7446476238        2.2908230050
 C          5.1096916797        1.1045139083        1.4601355034
 C          4.4603042551        0.0955007558        0.7608424303
 C          3.4818233647        2.4431569137       -0.9615002698
 H          3.3885292613        4.4518702038       -1.6807946282
 H          0.9663628083        4.6368529658       -1.4850186015
 H         -1.0511710184        4.7945462074       -0.7953670556
 H         -4.5292858312        2.6462239991       -0.3342212415
 H         -1.3104449663       -0.3608686252       -1.8012738099
 H         -1.1189421692       -2.6348712769       -2.7606400827
 H         -2.6681976713       -4.4130912824       -2.1009188081
 H         -4.4747196597       -3.9752955850       -0.4706503817
 H         -6.2007527354       -2.8443936371        1.3447514026
 H         -7.3938122368       -1.3252835692        2.8897353407
 H         -6.6655823885        0.9963300358        3.1689027187
 H         -4.7529309051        1.8911549259        1.9018358205
 H          0.7937283437        0.6196184252        0.0138615789
 H          1.4298029513       -0.8084441712       -1.8868862875
 H          1.2151750379       -3.2286039476       -2.3283392100
 H          2.6919092109       -4.8468236731       -1.2441015951
 H          4.4672442772       -4.0973086058        0.3069923489
 H          6.1776933143       -2.6282638075        1.8862325234
 H          7.3653060449       -0.8256195185        3.0927190207
 H          6.6763479655        1.5108708726        2.8439102148
 H          4.8017033749        2.1347645771        1.3675742833
 H          4.5507928658        2.3570846737       -1.0762054863
