  99
       -155.63018753
 C          7.1069794821       -3.0309336581        1.7201489766
 C          6.5050383201       -4.2657706502        1.9076099234
 C          5.2214832858       -4.4873287417        1.4480327444
 C          4.5245541537       -3.4646247163        0.8079287158
 C          3.1723736332       -3.7022525638        0.3026407354
 N          2.7504310185       -4.9603272923        0.2155039387
 C          1.5339571907       -5.1345820674       -0.2924843773
 C          1.0320523048       -6.5019243111       -0.4256849940
 C         -0.2779750689       -6.7284696790       -0.8436174913
 C         -0.7473389742       -8.0207766739       -0.9752200439
 C          0.0832942284       -9.0942940994       -0.6932381795
 C          1.3870432386       -8.8737648574       -0.2766494075
 C          1.8625708089       -7.5840343934       -0.1414398495
 N          0.7476305241       -4.1398922986       -0.6964491748
 C          1.2397738118       -2.9149703627       -0.5484574838
 C          0.4129669332       -1.7835525597       -0.9704530063
 C         -0.6940132286       -1.9843433757       -1.7906682103
 C         -1.4344172205       -0.8973078553       -2.2161595056
 C         -1.0961132557        0.3820015744       -1.8119930451
 C         -0.0126502090        0.5934343497       -0.9595677433
 C          0.3459062410        1.9455961027       -0.4963380631
 C          1.6761182417        2.3394255644       -0.5415291936
 C          2.0641160696        3.6087608006       -0.1294652790
 N          3.4219183944        3.9499282955       -0.1273027466
 C          4.4252193684        3.1962265815        0.4500681078
 C          4.3372801515        2.0143081227        1.1714409346
 C          5.5040791167        1.4824568733        1.6848612003
 C          6.7343524258        2.1061224014        1.4873474287
 C          6.8257083833        3.2933457560        0.7886183134
 C          5.6644510731        3.8521319355        0.2708567143
 C          5.3848781070        5.0602236263       -0.4542240490
 C          6.1790516889        6.0951939624       -0.9296846381
 C          5.5765241994        7.1288312141       -1.6185068348
 C          4.2024705720        7.1320926437       -1.8483601592
 C          3.3912658645        6.1136171443       -1.3862339637
 C          3.9879487499        5.0838694658       -0.6732982656
 C          1.0980685536        4.5157820109        0.2960665424
 C         -0.2276369819        4.1319075078        0.3356784688
 C         -0.6211256063        2.8483424087       -0.0296024973
 C         -2.0266967619        2.4400415308        0.1196794360
 C         -3.0577161790        3.2092653971       -0.4114649202
 C         -4.3703625696        2.7881809925       -0.3244540864
 C         -4.6774699217        1.5933915635        0.3195581510
 N         -5.9964930212        1.1272699584        0.3701791485
 C         -7.1070108207        1.8438505163        0.7680772324
 C         -7.1958043033        3.1419096948        1.2499305138
 C         -8.4445365139        3.6131409028        1.6073044535
 C         -9.5816835971        2.8155997664        1.4992386069
 C         -9.4961933965        1.5155445666        1.0427475666
 C         -8.2521009684        1.0191577044        0.6768271768
 C         -7.8003339238       -0.2549466500        0.1916043600
 C         -8.4467127004       -1.4453284571       -0.1147852987
 C         -7.6972327435       -2.4998195304       -0.5963719875
 C         -6.3230326876       -2.3736722930       -0.7884328968
 C         -5.6569494149       -1.2003751356       -0.4906038702
 C         -6.4016719799       -0.1456398549        0.0182403644
 C         -3.6556578728        0.8470207439        0.9021133956
 C         -2.3464721599        1.2642574209        0.7962558378
 C          0.7463148187       -0.4979015125       -0.5584605298
 N          2.4451632837       -2.6476678740       -0.0549785093
 C          5.1295287368       -2.2218275738        0.6312322640
 C          6.4196550036       -2.0121863253        1.0790020897
 H          8.1140641942       -2.8632149508        2.0731913710
 H          7.0420456768       -5.0570112946        2.4099853574
 H          4.7385303655       -5.4430784727        1.5798022414
 H         -0.9096331966       -5.8801975611       -1.0561768670
 H         -1.7630984216       -8.1954788746       -1.2988869015
 H         -0.2856412783      -10.1040800125       -0.7991866202
 H          2.0323768711       -9.7121337587       -0.0587949053
 H          2.8750422857       -7.3923555098        0.1776088717
 H         -0.9449105347       -2.9881391645       -2.0949485656
 H         -2.2808646709       -1.0438456954       -2.8712697181
 H         -1.6691633733        1.2259821457       -2.1661497087
 H          2.4206902922        1.6576507385       -0.9247610196
 H          3.3870682794        1.5323096323        1.3449775103
 H          5.4576865272        0.5669918631        2.2560291814
 H          7.6259633299        1.6582934773        1.9013677199
 H          7.7768053290        3.7857579964        0.6523409671
 H          7.2459634116        6.0855454904       -0.7647219414
 H          6.1757878086        7.9448946323       -1.9939686693
 H          3.7618457356        7.9476242758       -2.4028205141
 H          2.3298049244        6.1159264515       -1.5838367856
 H          1.3930535386        5.5022819914        0.6198575932
 H         -0.9735378821        4.8256211110        0.6955573523
 H         -2.8229015121        4.1257182403       -0.9336028013
 H         -5.1601959063        3.3681489217       -0.7779808862
 H         -6.3178938713        3.7615727247        1.3546878123
 H         -8.5407053470        4.6215578323        1.9821527163
 H        -10.5400748581        3.2218681583        1.7865364152
 H        -10.3749089106        0.8920721386        0.9740948346
 H         -9.5140619892       -1.5375940715        0.0185778052
 H         -8.1799082585       -3.4352263671       -0.8377201634
 H         -5.7654947765       -3.2111143960       -1.1814261003
 H         -4.5939627435       -1.1077383449       -0.6579839874
 H         -3.8978325540       -0.0576199165        1.4390760699
 H         -1.5597507163        0.6792993319        1.2487733867
 H          1.5938476632       -0.3707735512        0.0976457521
 H          4.5809933345       -1.4381499914        0.1319520722
 H          6.8926529611       -1.0536928282        0.9241554818
