99
 energy: -155.567391908338 gnorm: 0.000077173652 xtb: 6.7.1 (edcfbbe)
C           -4.01678126629446       -3.85579500270146       -2.48286583879385
C           -5.02040168675301       -2.97345196678320       -2.11742336668709
C           -4.71367081492506       -1.66111806688315       -1.81458515702741
C           -3.39286521642039       -1.22403049253832       -1.86843198306198
C           -3.06482761413684        0.15774599629010       -1.50289295490791
N           -4.04966792545202        1.04439071957059       -1.51328772422962
C           -3.74534057647530        2.33261540903683       -1.14964329851329
C           -4.79431286388422        3.31550585297285       -1.13970645502303
C           -4.52855697269946        4.64192057307007       -0.77532288701907
C           -5.54605395152492        5.56984250597200       -0.74310225319833
C           -6.84394741280972        5.20006347782902       -1.07140240201552
C           -7.11576968623248        3.88886686225190       -1.43677862953487
C           -6.10536294736914        2.95236282705310       -1.47255836354144
N           -2.52219994109714        2.64666711205444       -0.79741330911201
C           -1.55704381170570        1.73200322270070       -0.77599177301604
C           -0.26120048989818        2.04895461265123       -0.26727070220092
C            0.01918402278147        3.31473237443391        0.27820938242238
C            1.24862701018800        3.56454342897246        0.84285424576873
C            2.21800015978556        2.57207890108694        0.90672342904766
C            1.96215840536995        1.30822566654532        0.36882682942942
C            2.97070024887651        0.23884574309272        0.47704996800862
C            4.30077600004379        0.50894665043386        0.18701777841685
C            5.26737288945669       -0.48813386221081        0.25795518310324
N            6.60575287198566       -0.18608691322095       -0.02255160306775
C            7.43192159993072       -0.88187323185501       -0.88166457770839
C            7.14774385220323       -1.97213137883674       -1.69200458395535
C            8.16417910700636       -2.46710579827216       -2.48672038882913
C            9.43238071284996       -1.89116263059379       -2.48823405789743
C            9.71388122629369       -0.78990547836128       -1.70305465911478
C            8.70925833379149       -0.27498719666662       -0.89592190594453
C            8.64081242729384        0.84055987530486        0.00749133713523
C            9.56277692642483        1.79083552185222        0.42355806574876
C            9.16522116044754        2.73830006566477        1.34694702219957
C            7.87254162385592        2.73542331008473        1.86574301679051
C            6.93750968334756        1.79927554152892        1.46727744409903
C            7.32344107787333        0.86048427868617        0.52085879995299
C            4.89666268557736       -1.78407482169905        0.60705495524999
C            3.57371627479905       -2.06273557022085        0.88739623980353
C            2.60548654214738       -1.06651973508539        0.84792097652334
C            1.20264167440937       -1.36867908542566        1.17200275054579
C            0.53380091024680       -0.66876102803876        2.17413609782407
C           -0.82340889170129       -0.82378570470502        2.35502605950161
C           -1.55345851527377       -1.65087057836596        1.50085114203380
N           -2.94875956393191       -1.66078673756312        1.54554369108341
C           -3.76720088610433       -2.75697507800304        1.35059773601840
C           -3.44779000262212       -4.10696896031084        1.30114423742679
C           -4.47744071180970       -5.01069507796552        1.11812676586530
C           -5.80053900843843       -4.59353427621825        1.00601405237588
C           -6.13071610376705       -3.25493580494662        1.09572808431275
C           -5.11262620612352       -2.33013562957891        1.27216168424824
C           -5.09758336274371       -0.90093330972114        1.42081883922237
C           -6.09483899576817        0.06361024899789        1.39867121070660
C           -5.73915622722065        1.38865392170213        1.55711219097007
C           -4.40566821145022        1.75179247914953        1.72200052655406
C           -3.39467529649725        0.80856673900455        1.73735063132621
C           -3.74566791965695       -0.52678673001732        1.59286438532876
C           -0.87192430698352       -2.43179184648818        0.56909342143254
C            0.49318048310466       -2.30383644517174        0.42316878952354
C            0.74303745578778        1.07089596360813       -0.24369533730986
N           -1.82949310864724        0.43970339687373       -1.17020986987979
C           -2.38908131552754       -2.10782108018230       -2.25412486532392
C           -2.70378239489420       -3.41854662892236       -2.55974820715151
H           -4.25829897146369       -4.88278917637779       -2.71374220429076
H           -6.04396865723674       -3.31283696413873       -2.06542314102538
H           -5.48212000832600       -0.96202240651044       -1.52333342399347
H           -3.51572021016890        4.91678615005231       -0.52284335812684
H           -5.33451598993640        6.59128087783356       -0.46051914454875
H           -7.63856445115632        5.93097078171867       -1.04340178646530
H           -8.12544573129169        3.60154894128792       -1.69388367125863
H           -6.30160023429196        1.92871410298206       -1.75233014798643
H           -0.74763191997036        4.07322586326051        0.25115340426626
H            1.45965921771515        4.53888204040133        1.26040041315674
H            3.16086484617227        2.76909707995221        1.39522839827721
H            4.58518335784872        1.49968746203146       -0.13523626525464
H            6.16248505887664       -2.41261804588818       -1.71267142955090
H            7.96940766176087       -3.31687071337917       -3.12416144733741
H           10.20069943282441       -2.30871037651170       -3.12164474119642
H           10.69196035719626       -0.33334930980603       -1.71745874356827
H           10.56971513037904        1.78311034871435        0.03457508608816
H            9.86632121210736        3.48813294609414        1.68171137586365
H            7.59608842513320        3.47896405743239        2.59858447687374
H            5.94423005952163        1.79196304554682        1.88965383573529
H            5.64751954386837       -2.55630436397488        0.67785684390451
H            3.28532980483232       -3.06379916549554        1.17397514582407
H            1.08603012572145        0.01154735471601        2.80537429179857
H           -1.32703058832936       -0.29755957772548        3.15097402635266
H           -2.43208257313083       -4.45065772018553        1.42123630566255
H           -4.24985123988939       -6.06526378273358        1.06997388716925
H           -6.57685350002663       -5.33033588053048        0.86299791630733
H           -7.15870933110890       -2.93123506347731        1.03466669193420
H           -7.12640135650871       -0.22105045054195        1.25528454380463
H           -6.49642678036822        2.15776770284767        1.53794600514523
H           -4.15223825822172        2.79530315752358        1.83273484973570
H           -2.36546145485151        1.11943333953992        1.82521305778103
H           -1.42525461106527       -3.08874520744091       -0.08204185588731
H            1.00790006361569       -2.87874408203652       -0.33334436635038
H            0.53500931923354        0.12508322795807       -0.71736593195752
H           -1.37258091737248       -1.74909943333247       -2.31166962514809
H           -1.92349873206173       -4.10405893536332       -2.85842141563630
