68
 energy: -116.879821815250 gnorm: 0.000046700284 xtb: 6.7.1 (edcfbbe)
C            3.86279655883614       -3.91427214099464        3.23932429523038
C            5.21360131942353       -3.58691562630917        3.33335231771232
C            5.74051558531504       -2.51008661541841        2.64740634491657
C            4.88757881738878       -1.75432393638694        1.85195254812123
C            3.52503655668857       -2.09859212137881        1.76922328754413
C            2.99371725093484       -3.17539550991273        2.45530254583434
O            2.84386990254540       -1.25134419686295        0.94105071307094
C            3.76634327390545       -0.35534407607340        0.47480139064670
C            5.04746107729285       -0.60067901213473        1.00591217687081
C            6.13583266383054        0.21621164245470        0.69336916571341
C            5.94525462137536        1.29622625039730       -0.13803956273333
C            4.67926998713581        1.54549300206641       -0.67059682964525
C            4.17973305783906        2.60474015875567       -1.50460432169059
C            4.78214953568736        3.71043684596217       -2.09289011638213
C            4.00345711507671        4.55978400230733       -2.85346112243685
C            2.64358218911538        4.31658705050758       -3.03260856866330
C            2.02299280291658        3.22317609558241       -2.45634351097551
C            2.79995433452561        2.37161843083581       -1.68746790644888
N            2.44444111459570        1.19608255079523       -1.03344531215154
C            1.20477630279942        0.58583029203707       -1.08212692111268
C            1.05799600798986       -0.80450370683934       -1.15250526445176
N           -0.12828843206000       -1.37361609627458       -1.13827476895676
C           -1.20478833125107       -0.58582604389513       -1.08211639667541
N           -2.44445307951483       -1.19607810981893       -1.03342638891646
C           -2.79997362495998       -2.37161017213457       -1.68745167770153
C           -2.02302065138984       -3.22316396418574       -2.45634034394619
C           -2.64361475976894       -4.31657708560311       -3.03259646914006
C           -4.00348556022122       -4.55978039819803       -2.85342640742261
C           -4.78216981986644       -3.71043594307094       -2.09284406588413
C           -4.17974873247882       -2.60473690510961       -1.50456741588015
C           -4.67927850594025       -1.54548857243326       -0.67055718429757
C           -5.94525788138274       -1.29622197557306       -0.13798737825801
C           -6.13582740405288       -0.21620870918619        0.69342517637225
C           -5.04745155422609        0.60067875787355        1.00596223779981
C           -4.88755784489042        1.75431468261672        1.85201282175760
C           -5.74048403881306        2.51006935310821        2.64748547463183
C           -5.21356200805663        3.58689516883048        3.33343029475204
C           -3.86275947687501        3.91425524286787        3.23938441238757
C           -2.99369065127323        3.17538724580755        2.45534303730146
C           -3.52501802016298        2.09858794980917        1.76926350192317
O           -2.84386030516134        1.25134218522938        0.94108131036384
C           -3.76633838919390        0.35534230073695        0.47484097800688
C           -3.57596656216836       -0.70419805499087       -0.39900727259102
C           -1.05800887293010        0.80450820039974       -1.15249057557212
N            0.12827567001648        1.37362054587651       -1.13827041848374
C            3.57596184577813        0.70419938619779       -0.39904105163315
H            3.48395778830179       -4.76337040636845        3.78765441750129
H            5.85823266735176       -4.18953790907690        3.95535491477848
H            6.78698816763395       -2.25844294625480        2.72091602083506
H            1.94660143826895       -3.42111372486085        2.37316519098278
H            7.10437413698094        0.00321466766666        1.11639958120252
H            6.76242896466299        1.95835001059439       -0.37613268707417
H            5.83641436847142        3.89499865147348       -1.95635408973294
H            4.45094641436616        5.42580579140358       -3.31764042021820
H            2.05861097437504        4.99685877253097       -3.63342228807435
H            0.96889472043620        3.04049341161825       -2.58816616907981
H            1.90214429119024       -1.47019391877480       -1.25271811987267
H           -0.96892296830451       -3.04048350841029       -2.58816969816636
H           -2.05865126415174       -4.99684278327538       -3.63342472644233
H           -4.45098379413789       -5.42578995756091       -3.31762010963793
H           -5.83643626493602       -3.89498998109101       -1.95631006282924
H           -6.76243294734881       -1.95834975014602       -0.37606678950937
H           -7.10436174908182       -0.00321982255405        1.11647598026516
H           -6.78695880820657        2.25843416008642        2.72099405739093
H           -5.85819054315990        4.18952700576523        3.95542658582485
H           -3.48391703418728        4.76335867877710        3.78770417948308
H           -1.94657562537468        3.42110580617491        2.37319516738981
H           -1.90215801752273        1.47019838400246       -1.25269671392029
