  68
       -116.83253855
 C          5.6159477160       -4.1280680862        0.5974438869
 C          6.8622153275       -3.5137342435        0.5018187905
 C          6.9773102292       -2.1506954419        0.3128893465
 C          5.8137790654       -1.3976410960        0.2197524463
 C          4.5615170983       -2.0346440639        0.3199960459
 C          4.4433885496       -3.3992895051        0.5081575621
 O          3.5367503738       -1.1436753467        0.2102771178
 C          4.1173449183        0.0800554602        0.0401104995
 C          5.5221692412       -0.0004854702        0.0391157747
 C          6.3170844159        1.1409625468       -0.0884447394
 C          5.7119310816        2.3724791095       -0.1912952854
 C          4.3187814972        2.4636721664       -0.1821918101
 C          3.4228029581        3.5869573169       -0.2032933403
 C          3.6189978233        4.9597901109       -0.2907855440
 C          2.5136783562        5.7864303998       -0.2823786087
 C          1.2254851727        5.2631674217       -0.1900025800
 C          1.0045614942        3.9019356200       -0.1020350228
 C          2.1124017363        3.0700045429       -0.1065412676
 N          2.1702459397        1.6858626377       -0.0694561058
 C          1.0808730090        0.8288448385       -0.0819511089
 C          1.0527692617       -0.3266793339       -0.8692242487
 N         -0.0017295756       -1.1122791739       -0.8909579223
 C         -1.0512366598       -0.7870957499       -0.1339622162
 N         -2.1385465161       -1.6427148994       -0.1676002118
 C         -2.0604137593       -3.0249580219       -0.2888806009
 C         -0.9496760467       -3.8342936323       -0.4677531874
 C         -1.1517436866       -5.2004335766       -0.5239961122
 C         -2.4240132115       -5.7547102048       -0.4033764952
 C         -3.5316278903       -4.9528080608       -0.2170246888
 C         -3.3524325305       -3.5763387183       -0.1570915600
 C         -4.2615720676       -2.4781557242        0.0176572552
 C         -5.6495131070       -2.4353228210        0.1560993776
 C         -6.2880185956       -1.2211539996        0.2563492299
 C         -5.5301510834       -0.0507123385        0.1932231768
 C         -5.8707616168        1.3464249582        0.2197657132
 C         -7.0535842377        2.0631451130        0.3497225467
 C         -6.9880960763        3.4423417597        0.3362371449
 C         -5.7726289821        4.1074587342        0.1944613111
 C         -4.5822214341        3.4152866838        0.0614081077
 C         -4.6508492712        2.0343987307        0.0767940882
 O         -3.6015065925        1.1726479575       -0.0301107431
 C         -4.1294693237       -0.0839322602        0.0500846691
 C         -3.4725359652       -1.3046047693       -0.0034372719
 C         -1.0109762712        0.3569739554        0.6726512768
 N          0.0361968115        1.1529384079        0.6796728347
 C          3.5011140125        1.3137392045       -0.0965481998
 H          5.5631729687       -5.1960267149        0.7455707393
 H          7.7535300574       -4.1184068097        0.5780562402
 H          7.9439535791       -1.6767290909        0.2399889310
 H          3.4743297316       -3.8660932453        0.5831507727
 H          7.3915153268        1.0476993170       -0.0869242729
 H          6.3036469975        3.2714987983       -0.2654395312
 H          4.6161591538        5.3659782358       -0.3657992145
 H          2.6448635863        6.8562443665       -0.3484093658
 H          0.3820826795        5.9374830236       -0.1857291981
 H          0.0094986390        3.4949138102       -0.0214260659
 H          1.8750021912       -0.6136932165       -1.5074426778
 H          0.0339330051       -3.4070113264       -0.5719446331
 H         -0.3039264814       -5.8534044404       -0.6686724855
 H         -2.5410948011       -6.8267819819       -0.4576360739
 H         -4.5178024737       -5.3802965293       -0.1192894618
 H         -6.2105083502       -3.3564874587        0.1746851436
 H         -7.3591815278       -1.1610922364        0.3656070977
 H         -7.9961333824        1.5497596303        0.4610191597
 H         -7.8945106585        4.0199712176        0.4386922963
 H         -5.7584774998        5.1868319755        0.1899563033
 H         -3.6367281417        3.9218496926       -0.0470341518
 H         -1.8154155392        0.6293421052        1.3376228206
