97
 energy: -159.329637009759 gnorm: 0.000047657384 xtb: 6.7.1 (edcfbbe)
C           -9.14042352167403       -3.81005447208569       -3.31712118395256
C           -9.90585471982337       -2.86971994436609       -2.64504050948392
C           -9.29687069612524       -1.93208314041499       -1.83394502190798
C           -7.91089670032858       -1.92903754236027       -1.69008582599440
C           -7.26234895487684       -0.93768439549785       -0.83136448009571
N           -8.03619160450322       -0.08277575083835       -0.16878422130098
C           -7.40615871640870        0.79954333804139        0.60152440763485
C           -8.21657337589517        1.76000479600605        1.35080053807331
C           -7.60213462351533        2.73008452306331        2.14027984102280
C           -8.37010742476442        3.63520963562441        2.84648606990110
C           -9.75332723189385        3.58074639498733        2.77217698132719
C          -10.36946237187631        2.61757644805986        1.98827178702653
C           -9.60727683711652        1.70977447920471        1.27917559439337
N           -6.08402805510975        0.86180246525508        0.73224189044661
C           -5.38736689023216       -0.02993962429705        0.03324329610006
C           -3.93098538999869       -0.00197205148016        0.14385792092530
C           -3.15105943584534       -0.86364177245381       -0.62631823128662
C           -1.77720662704968       -0.83854906258479       -0.52518812252380
C           -1.15594812610102        0.04604219913410        0.35667523346632
N            0.23673510960435        0.06682172922956        0.46398115516472
C            1.03702688008547        1.19340072776514        0.42863918117232
C            0.69318220213726        2.52372726965386        0.23654623429684
C            1.70875266724079        3.45758728927959        0.20506475756938
C            3.05516561229225        3.10067245040683        0.35658463762428
C            4.10053982615382        4.13579248759530        0.32088736238305
C            5.16357149239998        4.08521453895534        1.23212601797152
C            6.17093665150486        5.03060965466921        1.24083710192424
C            6.10112171627657        6.04460147309483        0.30262196054734
O            6.98769194357077        7.06528861870606        0.13881651508090
C            6.51944416353753        7.81254170998040       -0.89860990098559
C            7.10254146482005        8.95395712128817       -1.41851107644432
C            6.46126810026802        9.56566486897989       -2.48111558313148
C            5.27735773941938        9.05568136531252       -3.00754849063154
C            4.69559226251430        7.91596649489637       -2.48767915137308
C            5.32155710159633        7.28503352940419       -1.42119782388314
C            5.04445933248260        6.11761072521794       -0.62631448040528
C            4.04080826861410        5.16164513718023       -0.61430980567086
C            3.39521842259123        1.76465375661826        0.52535203945476
C            2.39150098730013        0.80972945238676        0.55292319418490
C            2.40087936377870       -0.62228078840045        0.67565339596427
C            3.41437858126266       -1.55243191543647        0.84301664445976
C            3.08828845359124       -2.89819246267863        0.95028382698081
C            4.14296223476513       -3.91140214813363        1.11224001969614
C            5.22454537266865       -3.66607449988099        1.96832835954692
C            6.23952019225037       -4.58481543617580        2.15355722493723
C            6.15794893610442       -5.77455875872804        1.45275066928558
O            7.04834226575303       -6.80435763462056        1.48943406651654
C            6.56314991025295       -7.75643286420809        0.64566686090639
C            7.14261967978057       -8.98130895323849        0.36812463040094
C            6.48269602721913       -9.80700771074827       -0.52475792687502
C            5.28434875809925       -9.42343865501640       -1.12114147076819
C            4.70622251020671       -8.20024153500610       -0.84328533431485
C            5.35059559829416       -7.35507818231764        0.04989266203200
C            5.08222107069809       -6.04601513492584        0.58451355064691
C            4.07173299314636       -5.11222083491921        0.41667849732096
C            1.74297518646362       -3.28872386674216        0.91187946306714
C            0.71815321131661       -2.37859905041385        0.75272739908474
C            1.05237000653501       -1.03939358519422        0.61126697570302
C           -1.93404211460126        0.90753695722826        1.13013252992006
C           -3.30754493475214        0.88492752273426        1.02054414976343
N           -5.93436748755297       -0.94690435763233       -0.76007689617359
C           -7.14599932041848       -2.87622677938040       -2.36806115299128
C           -7.76123862440690       -3.81152042444860       -3.17704421121671
H           -9.61920323204469       -4.54251411227539       -3.95061903340538
H          -10.98035225993373       -2.87041981440338       -2.75596268191201
H           -9.87597493018279       -1.19248249734457       -1.30387660995878
H           -6.52482998397575        2.75782077099650        2.18505158847830
H           -7.89224548799942        4.38686138057247        3.45771574396878
H          -10.35172830048932        4.28963604426871        3.32574045048873
H          -11.44745095396550        2.57697502818317        1.93214638694720
H          -10.06901391004097        0.95293527065744        0.66489290291964
H           -3.64291421990520       -1.53894127764757       -1.30824906750063
H           -1.17150022882900       -1.48680602087927       -1.14048851190683
H           -0.33474732144802        2.82493319125984        0.10365296258054
H            1.45845825578413        4.50022576802792        0.07685031519487
H            5.18298960691405        3.29088072990672        1.96321055078334
H            6.98173087480554        4.98696455923838        1.95031884989326
H            8.01949564977596        9.34404153250447       -1.00681045297617
H            6.88916602118144       10.45847559639508       -2.91167815228064
H            4.80879892186971        9.56313952527202       -3.83757880206284
H            3.77828128827064        7.52076842800655       -2.89667830073605
H            3.23902896095095        5.20316490897759       -1.33567234669534
H            4.43025152786220        1.46860342546370        0.60452882764889
H            4.44538571288523       -1.23403935177402        0.86998340279654
H            5.25289347591410       -2.73606973204048        2.51600781539855
H            7.06466671243717       -4.38950273059228        2.81961254340675
H            8.07078629135492       -9.27275591168958        0.83291223810260
H            6.90708759302152      -10.77040292798289       -0.76423631675771
H            4.80140724672482      -10.09734197478189       -1.81298373963290
H            3.77756793827594       -7.90333167407639       -1.30627767859809
H            3.25458059179451       -5.30833383780284       -0.26065460856348
H            1.50150477346873       -4.33386669950893        1.03676313281783
H           -0.31126127276733       -2.70333661888249        0.75505840458521
H           -1.45212908607968        1.57500681270601        1.82869109463270
H           -3.92040510006697        1.54131328244164        1.61768386534711
H           -6.07442448295222       -2.86282633592994       -2.24597127214041
H           -7.16690818440280       -4.54554056258931       -3.70138824336864
