97
 energy: -159.329657436186 gnorm: 0.000047556952 xtb: 6.7.1 (edcfbbe)
C          -10.19272510661101       -3.19087111064395       -3.56391599303804
C          -10.88108665246628       -2.36866096975457       -2.68531400013415
C          -10.18834882002513       -1.57450298120217       -1.79241381197606
C           -8.79522189902683       -1.59777114113478       -1.77330825824089
C           -8.05831354884047       -0.75641315821558       -0.83001339059375
N           -8.75804122021183       -0.00544418095599        0.01567918029290
C           -8.04954540874160        0.74510050074818        0.85439514673029
C           -8.77600182022443        1.58808958671622        1.80431289126850
C           -8.07865393746158        2.41315605902493        2.68458399722672
C           -8.76726127488259        3.20822782559487        3.57979049585157
C          -10.15315359710032        3.18730899533458        3.60520495543646
C          -10.85159819359739        2.36807982841334        2.73179223583639
C          -10.16901232200589        1.57079319907657        1.83385551199156
N           -6.72026142953392        0.77657735077591        0.88158582356781
C           -6.10102875245693       -0.00623150434233        0.00236385180643
C           -4.64015926888012       -0.00579044583474       -0.00435232377652
C           -3.93952828966378       -0.76782347451577       -0.93828845311184
C           -2.56154914804762       -0.76576947338324       -0.94712531924385
C           -1.85671783481300       -0.00429969960864       -0.01483525067956
N           -0.45973345471712       -0.00346336909591       -0.01894624535295
C            0.34897173648589        1.11619049692493        0.03203602457062
C            0.00677182356796        2.46080364968507        0.03509481066653
C            1.02716868118820        3.38909382601029        0.06384457563736
C            2.37717975266548        3.01327993558339        0.07408850945580
C            3.42785605699186        4.04289468221057        0.10928645464515
C            3.28613847676848        5.15915505490917        0.94416196272273
C            4.24387229601102        6.15236705467446        1.01394306432234
C            5.36635997692460        6.01223956038700        0.21798561453317
O            6.41787657736174        6.87352575940499        0.13402079671327
C            7.28143965790518        6.33186621425158       -0.76869028631299
C            8.49240238157454        6.86603794046804       -1.17034927513319
C            9.22180523349212        6.15145842412416       -2.10410359627115
C            8.75848611487020        4.94396711607927       -2.61994654639608
C            7.54905597633876        4.41126704975351       -2.21842118739442
C            6.79970493247447        5.11110473101503       -1.28243442651104
C            5.53441189093565        4.89957619499761       -0.62969122866903
C            4.56287912757911        3.91228264048212       -0.68171135602730
C            2.71366715967348        1.66623688089751        0.03567984085826
C            1.70432863209219        0.71689074683147        0.01208240500903
C            1.70575720174127       -0.71947016829692       -0.04387711030962
C            2.71715663929414       -1.66666362605050       -0.06263048280070
C            2.38387514616336       -3.01456692431564       -0.09965393924954
C            3.43732813503274       -4.04159933952663       -0.12661142384828
C            3.30190954126483       -5.16256245337026       -0.95619412514044
C            4.26268446541294       -6.15343246784449       -1.01729381565460
C            5.38181013337408       -6.00616528404450       -0.21789078320085
O            6.43512786180401       -6.86434996969857       -0.12501892715695
C            7.29327606475413       -6.31609755426563        0.77891050155813
C            8.50328238735600       -6.84570046001967        1.18942854987439
C            9.22632170559621       -6.12506901000203        2.12348829018906
C            8.75791286469138       -4.91594955670687        2.63086762122659
C            7.54954792918779       -4.38771071523616        2.22034745819695
C            6.80637953946840       -5.09383550987312        1.28415611128174
C            5.54349671436227       -4.88873818209788        0.62471705181985
C            4.56907297903033       -3.90392005047652        0.66796372036342
C            1.03459940558901       -3.39314550387936       -0.09451343232176
C            0.01207777495318       -2.46697011792193       -0.07091297168531
C            0.35124453349721       -1.12161131232388       -0.06749655203791
C           -2.55538922594878        0.75669853345562        0.92253275663897
C           -3.93323004849192        0.75726878778529        0.92404072063079
N           -6.72929280868931       -0.78884916655726       -0.87055587574332
C           -8.10804644425889       -2.42619547768970       -2.65838699521806
C           -8.80679576361578       -3.21822852856954       -3.54843686975584
H          -10.73689023227518       -3.81095660336128       -4.26135276179910
H          -11.96102857866624       -2.34901465373079       -2.69925492310861
H          -10.70678506010027       -0.92810310941049       -1.10196155141414
H           -7.00064052566963        2.41686615793519        2.64982501699531
H           -8.22515397312415        3.84754397138491        4.26121221361260
H          -10.68940503358599        3.81004973354148        4.30639583103619
H          -11.93148326766251        2.35327544253267        2.75367177758572
H          -10.69539803934011        0.92669464445815        1.14727808632651
H           -4.49600664200749       -1.34753210937210       -1.65748941966972
H           -2.01840854136517       -1.33514028513257       -1.68641426211227
H           -1.02442106064305        2.77782348302385       -0.00023580396058
H            0.77998725167676        4.44020027877136        0.05169747477653
H            2.40780884756662        5.23380494312609        1.56762947319454
H            4.12811895292921        7.00508431327794        1.66365459151698
H            8.84591879895816        7.80143736013671       -0.76721708414330
H           10.17168216494373        6.53945557970203       -2.43993604609814
H            9.35852381248185        4.41743702273726       -3.34708788542645
H            7.19041171387416        3.47547051153724       -2.61909356465226
H            4.67813191795655        3.06747123647856       -1.34347756498249
H            3.74862809150099        1.35958286132682        0.04140810776423
H            3.75140007514477       -1.35757890098411       -0.06503492133304
H            2.42610466165379       -5.24310900894140       -1.58246061617927
H            4.15162994177786       -7.00987762520695       -1.66290857346897
H            8.86078433458263       -7.78240284989090        0.79287426543379
H           10.17508736217536       -6.50958390996297        2.46641248361435
H            9.35303183731826       -4.38465219105654        3.35859060802749
H            7.18699054683693       -3.45060727848382        2.61440064082763
H            4.67952797443263       -3.05561372871001        1.32605122566123
H            0.78942155615791       -4.44471155490517       -0.08184701188899
H           -1.01851990163038       -2.78628070221547       -0.03924084268952
H           -2.00733416741227        1.32671763692743        1.65767799367905
H           -4.48495652533604        1.33648034665966        1.64725616788164
H           -7.02983018165311       -2.43468373272333       -2.63153291494022
H           -8.27260541770001       -3.86003881359176       -4.23375236959556
