97
 energy: -159.253993691158 gnorm: 0.000063930823 xtb: 6.7.1 (edcfbbe)
C          -10.21100558717714       -3.09135007438161       -3.66554929202089
C          -10.89118585276436       -2.31847058149335       -2.73684786657872
C          -10.19211666619207       -1.54987391043642       -1.82807987207158
C           -8.79629604371173       -1.54676483914883       -1.83953423883833
C           -8.05806460464284       -0.73994976865024       -0.87981284731919
N           -8.75982130173837       -0.00394543681489        0.01050861864576
C           -8.05689074208486        0.73278856594010        0.89903625495304
C           -8.79391214513719        1.53770711533603        1.86143262915341
C           -8.11384227013107        2.31750648033436        2.79878114929437
C           -8.81864311224369        3.08078577348611        3.70642082137334
C          -10.20614056286898        3.07791372065348        3.69299559959619
C          -10.88758669283931        2.30546312495343        2.76487687041518
C          -10.18972987891510        1.53900994680901        1.85335248848120
N           -6.75300126464237        0.73793233682222        0.91888416944938
C           -6.07228575620063       -0.00175373753684        0.00681322493236
C           -4.65339928547156       -0.00058859234929        0.00489922725486
C           -3.92993105325193       -0.75742856389881       -0.94045253244942
C           -2.55942101244839       -0.75324694839458       -0.94253707092627
C           -1.85320613040471        0.00120888544939        0.00149946559735
N           -0.45130570860112        0.00176594991721       -0.00005799485988
C            0.35273559106378        1.11802172370241        0.02365204368045
C            0.00577280140667        2.46360636583587        0.01109715176019
C            1.02262683101122        3.39467085189301        0.02981047808870
C            2.37514390773513        3.02249570705843        0.04500767139091
C            3.42379936141366        4.05099706453943        0.06938808919431
C            3.26894672347498        5.19190603971413        0.86974924843194
C            4.22812310691636        6.18351648609075        0.93081901284115
C            5.36569225425752        6.01934752398523        0.16024331791378
O            6.41988339002018        6.87441639233623        0.07311432123420
C            7.29944252996377        6.30729875770917       -0.79872130809377
C            8.51912160135124        6.82817426078965       -1.19114707551098
C            9.26370996450895        6.08767764651684       -2.09228087548992
C            8.80668956884358        4.86824232830857       -2.58506423833650
C            7.58859362181506        4.34866651965334       -2.19228515369147
C            6.82407669401077        5.07457142335320       -1.28903783744060
C            5.54634711106396        4.88321564399016       -0.65421529793979
C            4.57458131500343        3.89662054890662       -0.69642862357463
C            2.71669835548298        1.67251944505724        0.02457772689552
C            1.71240092971931        0.72155225665046        0.01269115225260
C            1.71275994621566       -0.71683049848716       -0.01780598105801
C            2.71752772533678       -1.66726599136177       -0.03158221114735
C            2.37666713515447       -3.01744923206739       -0.05043894005642
C            3.42585800228637       -4.04536030491802       -0.07584688184728
C            3.27003728571532       -5.18756564945671       -0.87417016396943
C            4.22965273810097       -6.17873378217218       -0.93567919726239
C            5.36873054693527       -6.01273973928068       -0.16772100212408
O            6.42361593891221       -6.86704334570063       -0.08141774913992
C            7.30468143456992       -6.29798026551534        0.78763674158038
C            8.52553712912042       -6.81741969620984        1.17830613607173
C            9.27161127621146       -6.07491786035669        2.07656128190554
C            8.81490365953714       -4.85493508086187        2.56827883208808
C            7.59560843940611       -4.33681952967293        2.17730443019223
C            6.82960477184370       -5.06475024914615        1.27695799058174
C            5.55041595385101       -4.87521890291995        0.64455987869212
C            4.57814610012219       -3.88916946446419        0.68733997839399
C            1.02438628571080       -3.39034467291885       -0.03212896725439
C            0.00708369101761       -2.45981183892430       -0.01167862387592
C            0.35329808160201       -1.11404536442737       -0.02552350229360
C           -2.55807415078290        0.75488593600920        0.94714811360871
C           -3.92860046311133        0.75731495703048        0.94837646890611
N           -6.75422471657625       -0.74267880143333       -0.90308679148703
C           -8.11750878015929       -2.32694442971928       -2.77754085376242
C           -8.82353276534536       -3.09239657655440       -3.68237631302105
H          -10.76046629678019       -3.69225321709431       -4.37523899914802
H          -11.97148465121342       -2.31777955700471       -2.72409265275237
H          -10.70781046050753       -0.94365498491670       -1.09928908104713
H           -7.03480734170504        2.30946508308530        2.79661672227341
H           -8.28877374515969        3.68310571969843        4.43007164427306
H          -10.75464860167617        3.67705770745463        4.40490817808562
H          -11.96791095390898        2.30337048074676        2.75476267951150
H          -10.70641281013007        0.93310172214838        1.12500286075329
H           -4.48176483396222       -1.32937875235179       -1.66981278281793
H           -2.01077713747245       -1.31031241843025       -1.68826041596258
H           -1.02757883070912        2.77203906189032       -0.02698760216818
H            0.77289647129115        4.44466099450570        0.00328030046334
H            2.38034879617444        5.28546392704486        1.47553698066781
H            4.10297271177831        7.05361261335845        1.55509497613645
H            8.86754394176126        7.77290326430335       -0.80591458561926
H           10.22063118253942        6.46457013472631       -2.42043424023637
H            9.41844259224828        4.32170432056505       -3.28713927581339
H            7.23500283127082        3.40362190208939       -2.57524819136421
H            4.70007954457587        3.03518241180032       -1.33432743584948
H            3.75294391980389        1.37059193554891        0.03909295860954
H            3.75356767829533       -1.36477099765512       -0.04859244766551
H            2.38026229249995       -5.28257525514408       -1.47800044592574
H            4.10368684339694       -7.04987000566579       -1.55833949460775
H            8.87374311638509       -7.76257014152569        0.79391441771144
H           10.22949270121459       -6.45063725070253        2.40325377662337
H            9.42785027968506       -4.30680378725327        3.26806697376025
H            7.24222755576472       -3.39135808171267        2.55943284875226
H            4.70445537368298       -3.02674126274131        1.32373389509950
H            0.77526171601475       -4.44044709709503       -0.00443369175391
H           -1.02601697852011       -2.76877324460915        0.02886424947737
H           -2.00835046445112        1.31267244063050        1.69153536978022
H           -4.47939190996808        1.32859510453963        1.67904679586524
H           -7.03848224369741       -2.31752457796610       -2.77802496723884
H           -8.29465279590315       -3.69505086438693       -4.40647357046321
