50
 energy: -79.268287983126 gnorm: 0.000030227806 xtb: 6.7.1 (edcfbbe)
C            5.29438642016423        2.79376420897230       -1.14355443475411
C            3.94448205585989        3.04611814622022       -1.37262396553173
C            2.97204766758084        2.11118190744544       -1.05211387894307
C            3.38369802388870        0.91666719480296       -0.47961516218594
C            4.75903440970241        0.63547069984097       -0.28494837335673
C            5.71579514312654        1.58657875659033       -0.61215337225554
C            4.83505632832550       -0.70312931989084        0.23206627574601
C            5.88999071629434       -1.50938591814356        0.63649017351019
C            5.60719036767424       -2.77003390643171        1.13470369860327
C            4.29424294598876       -3.21809125691597        1.25194690960885
C            3.22519041550006       -2.42822047329066        0.85777780337847
C            3.50304752084967       -1.17942742496589        0.32149877630884
N            2.63389857708447       -0.18849914033101       -0.10758856903877
C            1.25376235522122       -0.27866255057822       -0.14669877699107
C            0.65133020687927       -1.46650824513043       -0.66362303502602
C           -0.71956897844147       -1.58618479905073       -0.73296771778925
C           -1.51131476896956       -0.54724068964052       -0.26736739432318
C           -0.90556585004503        0.68451875555419        0.27029285675807
C            0.47447814761242        0.78504423086826        0.30309741603882
C           -1.97284954671242        1.55039559935556        0.67608655643481
C           -2.24679453075795        2.81311508547827        1.23830785741753
C           -3.59209019255356        3.17253178225918        1.41515409796701
C           -4.69478305210226        2.39400878342757        1.08430264901432
C           -4.45798599904261        1.11781265521914        0.51418656019619
C           -5.11833584307398       -0.05727454601092        0.00545234734481
C           -6.45080105631678       -0.42489218749798       -0.13402361572141
C           -6.76046373375194       -1.66298188156936       -0.67265683737267
C           -5.76392340282079       -2.55244183787309       -1.07931094237063
C           -4.42186957773600       -2.22187557756292       -0.95581403932813
C           -4.09586750512602       -0.99034863773234       -0.42029353443074
N           -2.86465985864629       -0.40764319451824       -0.18557459194150
C           -3.11481556558751        0.82722393213302        0.36557698034408
H            6.02345757215630        3.54771083966744       -1.40102901762259
H            3.64664251082795        3.98509665756635       -1.81415991839453
H            1.93178864502862        2.30797727192480       -1.25971281439658
H            6.76491831220207        1.38341276353486       -0.46194276243132
H            6.90726585402763       -1.15538472473499        0.57007155601159
H            6.41518081037283       -3.41270859506229        1.45145118262949
H            4.10199046282674       -4.19637690163093        1.66598496668269
H            2.21114323620820       -2.77370154403584        0.98354479903755
H            1.28621130351830       -2.23556926033775       -1.07090037776939
H           -1.16644374754702       -2.47289636802165       -1.15608868343181
H            0.94419054164014        1.65658461295780        0.73305397868078
H           -1.46263773001616        3.49236489665242        1.53399158063711
H           -3.78492487739008        4.14446118378460        1.85192312920027
H           -5.69406787085756        2.76024788695975        1.26164065572049
H           -7.23484189158978        0.25097112270281        0.17529432317323
H           -7.79629671043651       -1.95026991237681       -0.78203369975310
H           -6.04128283554975       -3.50926420611202       -1.49471759240272
H           -3.65410801662913       -2.91290198849299       -1.27042653041186
