81
 energy: -130.085166495343 gnorm: 0.000089368932 xtb: 6.7.1 (edcfbbe)
N           -7.96082216405805        1.80959378646699       -0.19229489297903
C           -6.90102040276467        1.36648574174537       -0.21875459853426
C           -5.60520431050414        0.82297692706341       -0.25043819529677
C           -5.29307527598922       -0.39561790131625        0.39073132769269
C           -6.28544785338115       -1.19146403479451        1.12292224563756
C           -5.89837981775479       -1.81103693428020        2.30993887234210
C           -6.80410354247888       -2.56678804582554        3.02802851296230
C           -8.09876913653042       -2.72712734836309        2.56060096463702
C           -8.48097714954703       -2.13600751946276        1.36793078999435
C           -7.58202354117624       -1.36966392694108        0.64910021336625
N           -4.05997353046366       -0.87399655313618        0.37604610560392
C           -3.12863451759556       -0.21979661375179       -0.31219782776912
C           -1.78560771865777       -0.78749993045882       -0.34725892590586
C           -0.75509015218262       -0.11946148279233       -1.01015493392853
C            0.51340750860103       -0.65518870492681       -1.03956566352377
C            0.77601957487288       -1.86895643548360       -0.40237193639950
N            2.05987881973439       -2.41966822622001       -0.45539386254146
C            2.33927254595795       -3.64986843852590       -1.03135318114537
C            1.47396488287616       -4.65424148234664       -1.43615759067522
C            2.02317944552375       -5.78789599438065       -2.00586272857351
C            3.39814008305137       -5.91901701008213       -2.18275518432307
C            4.26107158192118       -4.90813500523308       -1.80984125777118
C            3.73182086338253       -3.76075277672271       -1.23357499930683
C            4.31319209775448       -2.53359350882170       -0.76904462532832
C            5.63260178640363       -2.08262045778024       -0.75478446972793
C            5.91445768203643       -0.82549942941695       -0.27312834458980
C            4.87146778945966       -0.05865189489316        0.24680795420213
C            3.53070125331991       -0.51031501119851        0.32157035954314
C            2.80789308036334        0.48582725658728        1.06731126793113
C            1.51698915414616        0.58504304677510        1.57923902251927
C            1.15481529646719        1.72414931589917        2.26915681333915
C            2.05368681778354        2.76953396332878        2.46338983903634
C            3.35625294020229        2.67687889162136        2.01640102983708
C            3.73378138001918        1.52043920472209        1.34915678222360
N            4.96837616454687        1.18011119413956        0.84356258946239
C            6.13638248869676        1.95110534265867        0.94038682512129
C            6.88170171311576        2.23333681425886       -0.20059209138305
C            8.03387015260778        2.99105275035775       -0.10239524142358
C            8.44563255701761        3.47987278744170        1.12636069658434
C            7.70294412338518        3.20266674951609        2.26204754132129
C            6.55480866216719        2.43718629418057        2.17527618007948
C            3.25026928403511       -1.74030146760600       -0.28195433789740
C           -0.25200468259744       -2.54063208597670        0.25826239438838
C           -1.52082122505671       -2.00256936099617        0.28568262898379
N           -3.33963659515362        0.91602128742742       -0.97068508641332
C           -4.54283618982634        1.46362285148272       -0.92487415719700
C           -4.69785529213987        2.74164370371052       -1.62960156471549
C           -4.02798941348127        2.92058486471912       -2.83878280331367
C           -4.15165339504325        4.10740293241254       -3.53393926318723
C           -4.92946084887000        5.13366639291564       -3.02188476453334
C           -5.57522282527994        4.97132361570763       -1.80756756179211
C           -5.46365947251956        3.78194284763573       -1.11111338381819
H           -4.88588367446446       -1.67909778855952        2.66018270035482
H           -6.50081128614241       -3.03391312268446        3.95339837749944
H           -8.80731424489735       -3.31797429352979        3.12194967966532
H           -9.48436145254606       -2.27176768615459        0.99324956748261
H           -7.88316136907814       -0.93172065227642       -0.29039717689276
H           -0.97109806924295        0.81873104602096       -1.49594959097871
H            1.31474516300112       -0.14304339817557       -1.55034754733997
H            0.40494524268987       -4.55667415807521       -1.32359117152666
H            1.37032712093301       -6.58736733199448       -2.32366002127877
H            3.78935068871555       -6.82177175700559       -2.62795251515140
H            5.32545205200973       -5.00156041236761       -1.96400799237536
H            6.42113361473539       -2.71701006082961       -1.12851909448951
H            6.92494821973732       -0.44738620392662       -0.26331280721374
H            0.80735936688457       -0.21648398760216        1.46389592290541
H            0.15325157591664        1.80698585447803        2.66425477203989
H            1.73275438949886        3.65773882543112        2.98705634518555
H            4.06052885581106        3.47842084211048        2.18097819005189
H            6.54634389106181        1.86525020752361       -1.15884762238323
H            8.60853604438939        3.20731757179388       -0.99082322259666
H            9.34351108992205        4.07476270097869        1.19878829667765
H            8.02365421046732        3.57740611280601        3.22278862397458
H            5.98460399555871        2.20008696407620        3.06102555468337
H           -0.03868366192627       -3.46848948326725        0.76758042240004
H           -2.32435317661948       -2.50648121231085        0.79958578806109
H           -3.42392689759560        2.11306723065409       -3.22378918192702
H           -3.63982874845587        4.23443291810183       -4.47649913477459
H           -5.02666952787696        6.06175259001307       -3.56547432390264
H           -6.16907659886410        5.77472329495098       -1.39827959090323
H           -5.95259149001681        3.67396540874627       -0.15486973005291
