81
 energy: -130.015512937586 gnorm: 0.000072912790 xtb: 6.7.1 (edcfbbe)
N           -7.74982025062051        1.91474255579302       -0.49435800089274
C           -6.75353583228061        1.37932007014455       -0.24735026386019
C           -5.54815965043592        0.75594666396506        0.01802290938281
C           -4.51565961190897        1.34924475335854        0.82660711030922
C           -4.75382986736321        2.56551564654051        1.60925256884406
C           -3.69878194538302        3.46126424463270        1.79186362587423
C           -3.88456721749680        4.61564108089345        2.52514422867218
C           -5.11892018786425        4.88857119941037        3.09355443164699
C           -6.16415559712529        3.99441856748170        2.93155809640368
C           -5.98785565300927        2.83840325349757        2.19437672209749
N           -3.33088988438714        0.82857055716531        0.88474613597506
C           -2.97997901024646       -0.29565371040169        0.22497005683122
C           -1.66299794586893       -0.81364105190430        0.30550951694618
C           -1.30259930313961       -1.97916834201778       -0.40005608659896
C           -0.02090767162960       -2.46643691353815       -0.34102955184896
C            0.94606018265993       -1.80615371123675        0.42183193596567
N            2.25436131517651       -2.31136159044514        0.50498536374086
C            2.55583107522211       -3.55145812709298        1.04232914978821
C            1.70376255483230       -4.57954479217700        1.41195697877738
C            2.27132208479832       -5.72618152230478        1.94056698761316
C            3.64754685349597       -5.84307967260357        2.10864850084430
C            4.49858812217859       -4.80815039268617        1.76483386178543
C            3.95164277798640       -3.65086934603420        1.22968075483643
C            4.50849446618594       -2.39996747412787        0.79667830507244
C            5.81410592914785       -1.92206803600240        0.79481909065619
C            6.06800444109646       -0.64076995456117        0.35164733688381
C            5.00649577382427        0.12307917124417       -0.13325552910235
C            3.67414761837084       -0.34990316929394       -0.21932606786004
C            2.92959823001173        0.66109950742084       -0.91894927963721
C            1.63087128399426        0.76106314756165       -1.41261228031218
C            1.24594540608226        1.92097266036386       -2.05202939596430
C            2.12808449764982        2.98850782489731       -2.21565519091656
C            3.43499808931913        2.90038895879365       -1.78473496721813
C            3.83687688611173        1.72339927409224       -1.16612591847862
N            5.07844738081373        1.38558384096216       -0.68328017826158
C            6.23298388029299        2.18035411202073       -0.75483811293154
C            6.63694068735707        2.71919904211958       -1.97247237006030
C            7.77167986653665        3.50679287071236       -2.03442454616480
C            8.51373587916790        3.75430085356909       -0.89137875005127
C            8.11551765558447        3.21342597768280        0.31997976656758
C            6.97731803568653        2.43208667132452        0.39384395187469
C            3.41900394353731       -1.61132769615904        0.33533667616890
C            0.59846169941961       -0.65801421480907        1.14175876507674
C           -0.68083921430406       -0.16827715862932        1.08372461636103
N           -3.93454624962759       -0.91683430975076       -0.50077633170194
C           -5.14820913699385       -0.47688949323791       -0.60768398509583
C           -6.08585582588123       -1.27288367160217       -1.40517735698538
C           -5.59965545581266       -1.98474871698688       -2.50288172644926
C           -6.45400223389035       -2.75105973478795       -3.26956250527647
C           -7.80017831981714       -2.82604514492900       -2.94798244781306
C           -8.28498505297707       -2.13645305178614       -1.84903420094868
C           -7.43694445029061       -1.36241370473992       -1.07928604813872
H           -2.74234320054885        3.24229269608198        1.34098348480128
H           -3.06441571574812        5.30696667556523        2.65337189020305
H           -5.26443261718930        5.79389980243409        3.66402427942566
H           -7.12451641935939        4.19706218607163        3.38148692966440
H           -6.80561397160288        2.14243093755858        2.08982762608947
H           -2.05609015499361       -2.47489835421795       -0.99277401475141
H            0.25943578464100       -3.34640866991726       -0.90173982477031
H            0.63435089683892       -4.48848294763883        1.30010751583140
H            1.63118284804421       -6.54543916356869        2.23179318926342
H            4.05365217243717       -6.75402942551304        2.52224272113634
H            5.56455820989900       -4.89544822855811        1.91087814271203
H            6.61827224720795       -2.54928679625127        1.14633602224701
H            7.07111671409955       -0.24365870577582        0.34803190782930
H            0.93368697938452       -0.05260917650790       -1.31489112217816
H            0.23870926944487        2.00569598735836       -2.43112592850654
H            1.78683247521088        3.89097085311517       -2.70021436342782
H            4.12519708115552        3.71899840249058       -1.92180132429489
H            6.06732875837627        2.50495236156242       -2.86434866174965
H            8.08195510430070        3.92250433503569       -2.98142435611064
H            9.40072522391022        4.36703203194991       -0.94453390229718
H            8.68953258244809        3.40685443129958        1.21386779842445
H            6.65125015666916        2.02417124848146        1.33908070969131
H            1.35099375450930       -0.16636994677836        1.74074091600313
H           -0.96152755630856        0.71416663136994        1.63756360803491
H           -4.55040079522719       -1.91605907602419       -2.74806783854195
H           -6.07015862402996       -3.29162426280946       -4.12245584622544
H           -8.46855209203147       -3.42315147435946       -3.55042570363302
H           -9.33074074675731       -2.20028667781714       -1.58803242842722
H           -7.82385226248397       -0.84328422815029       -0.21617831864025
