81
 energy: -130.015294315547 gnorm: 0.000091608115 xtb: 6.7.1 (edcfbbe)
N           -7.78454314977221        1.80566605864946       -0.44975256629848
C           -6.78349774432670        1.27180798702205       -0.21907308068957
C           -5.57192962040185        0.65400369761528        0.03067919696282
C           -4.58112829894246        1.19747113544276        0.92247888144060
C           -4.87831670770404        2.32918055072824        1.80532630805679
C           -6.13723844168739        2.51313234125812        2.37196131988054
C           -6.36986546522374        3.58906582846263        3.20807244227593
C           -5.35659505518908        4.49070687861304        3.48837124948099
C           -4.09788290996841        4.30514113941473        2.93845658214986
C           -3.85603412835614        3.23081257227800        2.10651777963397
N           -3.38430944015795        0.70412864670113        0.97190433203125
C           -2.98430341251812       -0.35117205038180        0.23136147515074
C           -1.65688626453131       -0.84283413339320        0.30734711337246
C           -1.25808657309579       -1.95891218619608       -0.45523144134223
C            0.03315210917525       -2.42092762017168       -0.39921781309818
C            0.97252969905353       -1.77911429996783        0.41184554968842
N            2.29157328164556       -2.25964623562424        0.48938924522305
C            2.61062833445131       -3.50143781138398        1.01099874177667
C            1.77175035014440       -4.54575648587360        1.36448381855350
C            2.35418893944977       -5.69085088160233        1.88007020763999
C            3.73169649120269       -5.79040618896484        2.04948485143579
C            4.56939822045760       -4.74041335471573        1.71864564327786
C            4.00747958298239       -3.58399181053285        1.19713540153736
C            4.54640963026639       -2.32111789921253        0.77669951101363
C            5.84145735805182       -1.81645167777242        0.80396557693914
C            6.07934613587908       -0.53111169707758        0.36387034589874
C            5.01612114381756        0.20504910631137       -0.15871312029274
C            3.68355816255275       -0.27244317662509       -0.21914846243784
C            2.91356775123095        0.75502140983105       -0.86636980168330
C            1.60663817247544        0.85486874793808       -1.33715052087330
C            1.20742632887542        2.01711562570208       -1.96384451447615
C            2.09071831373748        3.07744527567117       -2.16232315992439
C            3.40413618211018        2.99154130243604       -1.75109920629308
C            3.80724206319583        1.83071984079846       -1.10372622320689
N            5.06493770610566        1.48346007646765       -0.67199150123584
C            6.21238937686014        2.28519632990671       -0.78151403578673
C            7.34730660724931        1.80182353649737       -1.42524850989455
C            8.47207932182602        2.59925710797541       -1.52914030641795
C            8.47072762534621        3.88095817755506       -1.00411199916594
C            7.33874535904254        4.36534843360550       -0.36974403035230
C            6.21216318929634        3.57236320659710       -0.25299580481437
C            3.44588695345806       -1.54230550614868        0.32315582980065
C            0.58743087752760       -0.68087223277290        1.18764493170810
C           -0.70319196664158       -0.22011171881880        1.13756223889872
N           -3.90048507047591       -0.93030095921444       -0.57419103300150
C           -5.12023957973472       -0.50892923734567       -0.68663933751160
C           -6.00722336190273       -1.24742908217040       -1.59039694657101
C           -5.46001823384036       -1.84672481377751       -2.72611317093530
C           -6.26471769323093       -2.55295726778074       -3.59703855206811
C           -7.62166537880565       -2.67929861032037       -3.34410186359075
C           -8.16695030221817       -2.10290507083355       -2.20890120908840
C           -7.36871224459334       -1.38974774094886       -1.33415405092864
H           -6.93072053229580        1.80896760900235        2.17557587404990
H           -7.34915261723754        3.72293961941742        3.64266465942918
H           -5.54589890748697        5.33362082511073        4.13635213075578
H           -3.30256095892779        5.00226259079023        3.15868298130070
H           -2.88020236426995        3.08059651106211        1.66933613321985
H           -1.99054911986709       -2.43842199268407       -1.08644244158269
H            0.34236399296393       -3.26597282017168       -0.99730776726640
H            0.70164296714191       -4.46753701088945        1.24864880662460
H            1.72522863560772       -6.52269687050684        2.15974270481108
H            4.14957700171211       -6.70051764659246        2.45309809979280
H            5.63636367485115       -4.81579706098176        1.86412657379542
H            6.64856674225271       -2.42408104839878        1.18222644830492
H            7.06749295306812       -0.10157086942483        0.41564729691801
H            0.91501308970017        0.03683925044476       -1.23840885792739
H            0.19243917858402        2.10166856938871       -2.32176205231011
H            1.74693238891586        3.96936705278863       -2.66427079974136
H            4.10372231710861        3.79096827417315       -1.94302250435557
H            7.33515757124060        0.81059642950461       -1.85343813773275
H            9.35054050115569        2.22065247871355       -2.03005062004403
H            9.34957803182461        4.50158278697082       -1.09053020694274
H            7.33466315618310        5.36335363128656        0.04239793881311
H            5.33272801579474        3.93770566381215        0.25608940501284
H            1.32011982912477       -0.20450043746939        1.82259830342888
H           -1.01391752056196        0.62273381324484        1.73530121347249
H           -4.40290944722419       -1.73796117809445       -2.91718387819310
H           -5.83359490812649       -3.00574627975203       -4.47800097427039
H           -8.25138527703361       -3.22832397878122       -4.02837269409926
H           -9.22142931648716       -2.20767621873411       -2.00180524621113
H           -7.80295516465225       -0.95950806896457       -0.44511021694904
