  81
       -130.01120269
 N         -7.7934418222        1.8507537484       -0.4338151419
 C         -6.7804923368        1.3392091168       -0.2037653166
 C         -5.5581309840        0.7401451320        0.0386226324
 C         -4.5156254821        1.3542934665        0.8185327712
 C         -4.7487716021        2.5787889623        1.5893711485
 C         -3.6952360744        3.4819011596        1.7437647355
 C         -3.8754260519        4.6460517155        2.4625655229
 C         -5.1025500934        4.9223931993        3.0449508941
 C         -6.1457959865        4.0212341334        2.9116363338
 C         -5.9751735151        2.8553340795        2.1888826756
 N         -3.3242793681        0.8446286795        0.8607639863
 C         -2.9831643652       -0.2825189971        0.2045186039
 C         -1.6639097020       -0.7957920648        0.2735771038
 C         -1.3070573762       -1.9637813248       -0.4320960114
 C         -0.0269470152       -2.4531192925       -0.3766170346
 C          0.9449237888       -1.7930688201        0.3823226391
 N          2.2492678176       -2.3051264465        0.4693454954
 C          2.5410145967       -3.5511821784        0.9997911679
 C          1.6812284182       -4.5765626837        1.3586079026
 C          2.2394449775       -5.7295339650        1.8842054248
 C          3.6136920401       -5.8546657834        2.0602440371
 C          4.4725549809       -4.8218372694        1.7279164725
 C          3.9350482362       -3.6590816922        1.1959051486
 C          4.5012019958       -2.4075888453        0.7756557749
 C          5.8080721013       -1.9354057664        0.7880675041
 C          6.0709373030       -0.6511253010        0.3563331873
 C          5.0170766127        0.1205369328       -0.1316769625
 C          3.6833188568       -0.3463300152       -0.2327707612
 C          2.9495071994        0.6717875399       -0.9319900881
 C          1.6554108968        0.7799330354       -1.4368315934
 C          1.2806936112        1.9460244003       -2.0704263819
 C          2.1683845128        3.0119361602       -2.2178325686
 C          3.4709915157        2.9160189019       -1.7763573726
 C          3.8632336668        1.7327307066       -1.1631189702
 N          5.0987544990        1.3867903522       -0.6718736834
 C          6.2569941121        2.1778848319       -0.7263063942
 C          6.6751803120        2.7234986724       -1.9360336751
 C          7.8132512088        3.5074668114       -1.9808166752
 C          8.5442328292        3.7445015893       -0.8284633500
 C          8.1316520236        3.1969042572        0.3750350724
 C          6.9901090573        2.4190094172        0.4317680396
 C          3.4179610133       -1.6106161797        0.3116253827
 C          0.6024771919       -0.6391199582        1.0978364646
 C         -0.6754345928       -0.1477090283        1.0436012497
 N         -3.9399720634       -0.9226933582       -0.5040146814
 C         -5.1586863566       -0.4901451022       -0.5862287321
 C         -6.1088887872       -1.2964666556       -1.3607747296
 C         -5.6517360083       -1.9766135977       -2.4898009527
 C         -6.5195177045       -2.7500261699       -3.2344443818
 C         -7.8484254201       -2.8641831282       -2.8576477862
 C         -8.3029611913       -2.2062782771       -1.7266740478
 C         -7.4420225350       -1.4239158828       -0.9799653318
 H         -2.7445232250        3.2595317255        1.2825493037
 H         -3.0563649954        5.3426372188        2.5688793437
 H         -5.2439351220        5.8357012652        3.6037270662
 H         -7.1003634661        4.2263196633        3.3727270474
 H         -6.7913512558        2.1546214218        2.1069286332
 H         -2.0642730278       -2.4581154137       -1.0210877690
 H          0.2505014107       -3.3335995715       -0.9380351206
 H          0.6130286472       -4.4789437438        1.2419189119
 H          1.5929622549       -6.5466158651        2.1671667325
 H          4.0125532993       -6.7697814382        2.4716346406
 H          5.5369351457       -4.9153284244        1.8812528966
 H          6.6069912936       -2.5681111872        1.1416309063
 H          7.0757332980       -0.2584056481        0.3642666529
 H          0.9545732590       -0.0319841448       -1.3510091408
 H          0.2771159895        2.0379013611       -2.4572653848
 H          1.8341480648        3.9195536785       -2.6975170367
 H          4.1653238825        3.7331117310       -1.9007409979
 H          6.1142153856        2.5170389904       -2.8352236238
 H          8.1350957029        3.9280586661       -2.9217358703
 H          9.4337447315        4.3545352989       -0.8682404780
 H          8.6967958083        3.3825459564        1.2761681523
 H          6.6528940255        2.0056542070        1.3707073207
 H          1.3581808591       -0.1483490609        1.6936300797
 H         -0.9533262958        0.7362691407        1.5962578619
 H         -4.6155551500       -1.8777434362       -2.7768451112
 H         -6.1594843103       -3.2656636219       -4.1128287378
 H         -8.5271803180       -3.4671807618       -3.4424294358
 H         -9.3347667930       -2.3011206503       -1.4229540918
 H         -7.8035676642       -0.9282568149       -0.0923087720
