56
 energy: -84.683930390655 gnorm: 0.000057056481 xtb: 6.7.1 (edcfbbe)
C            0.85001969872877        2.97399739811543       -1.30671479880659
C            0.35122132169112        0.45264082147783        0.11927258804979
C           -1.65032435561032        1.31128292592766        2.25980316780278
C            1.16155848738715       -0.33123220762186        1.12486303348970
C            2.70133897236530        0.58848139350480       -0.38330777877310
C            3.88180926467049       -0.38779377702315       -0.48503925807201
C            3.34283051122842       -2.17823590279721        0.66675620977523
C            2.01695184944865       -2.61410109582658        1.11641633252854
C            0.95972029294969       -1.71173072842956        1.07047983762653
N           -0.30753318669074       -2.20640358631782        0.77220556759479
C           -1.16926062071828       -1.52527360248225       -0.06666846945707
C           -2.09587006994518       -2.15218819840675       -0.80084293637620
C           -3.22745447473378       -1.42209566274046       -1.42318563398972
C           -3.99084802620378        0.54289999535554       -0.82171517012753
C           -2.86255429486858        1.25796617799596       -0.05321827159859
C           -1.08744515472115       -0.02908568719032       -0.00263507720522
O            2.02797125822191        3.63152282397991       -1.05958388296476
S            0.19679087607485        2.33247222083307        0.35010111694169
O            1.27360116382681        2.81857638309929        1.23527393658436
C            1.37360992778148        0.17329451675044       -0.97034166766536
C            2.54855476232329        0.23530689681441        1.12233419967196
C            3.73471424039426       -0.73496916912204        1.00472811704661
C            3.48269819369579       -1.80804788247241       -0.90658073444458
C            2.31209553653804       -1.88973587833523       -1.80557344571670
C            1.30135854243696       -0.97587958958107       -1.77873973354314
C           -2.14837307778189        0.47536504495226        1.07977074410574
C           -2.96931757846630       -0.64521695747013        1.65252545200778
C           -3.98536448047277       -1.21807941827417        1.02493020779291
C           -4.30001911006564       -0.89961398073991       -0.38622953796401
C           -2.96716682647310        0.03124074115903       -1.85048498587405
C           -1.84886592825799        0.75297063168971       -1.08956482330193
H            2.12956927369909        3.63844148313669       -0.07511143528624
H            0.07029736326321        3.65241560553485       -1.67492743728475
H            0.99002068141748        2.13190068567929       -1.99434223913415
H           -1.59907452671004        2.37155300983674        2.03182763944007
H           -2.33491509709893        1.19804606366323        3.09937413307416
H           -0.66612019807673        0.97643606815633        2.58240420299237
H            2.98025303488078        1.61236751127893       -0.62374866269438
H            4.79641638357880        0.01009754764281       -0.91685331229634
H            4.11170549436118       -2.90376408084769        0.93343676552160
H            1.80120074576090       -3.67358503709727        1.10833712933137
H           -0.37032633459056       -3.21428871613481        0.71664010784878
H           -2.14386553596997       -3.23208077367841       -0.80020053566503
H           -3.68837656328656       -2.01942817572972       -2.21011277400529
H           -4.84414467323995        1.15997391189502       -1.08954545630974
H           -3.02063192468856        2.31599667676354        0.13879902266886
H            2.68391126642761        1.04451527680850        1.83698154514273
H            4.53401793938210       -0.60358569960088        1.72923287985345
H            4.31474394043259       -2.37866072112559       -1.32106737346153
H            2.22143992393306       -2.76631085566193       -2.43011203024514
H            0.38756009047074       -1.16863016513065       -2.32705213594056
H           -2.71528048567329       -0.94685029375560        2.65846856249907
H           -4.56496479728308       -1.99268663017758        1.50569964412350
H           -5.30825486928105       -1.21530517817813       -0.65343131896080
H           -3.03451717408825        0.24509103960246       -2.91405908166850
H           -1.24087450510559        1.42587079281696       -1.68793966291252
