56
 energy: -84.683930257779 gnorm: 0.000046824714 xtb: 6.7.1 (edcfbbe)
C            0.87676244554868        2.96929876531312       -1.28880038560066
C            0.36068973012065        0.44190931540756        0.12044335068879
C           -1.60968210307500        1.30479080149942        2.28736643987817
C            1.17026692303549       -0.36033099699990        1.11209981819773
C            2.70775347109630        0.55487720711889       -0.40111731144030
C            3.87602337217087       -0.43384572725485       -0.52161727938605
C            3.32583014307296       -2.22835555830378        0.61835371161062
C            1.99868889589236       -2.65287348765323        1.07513795589708
C            0.95179064893565       -1.73789881220058        1.04686466627424
N           -0.32375102454816       -2.21498838770451        0.75546201139480
C           -1.18516000859848       -1.51603950343722       -0.06896907169186
C           -2.12635278559889       -2.12512422418412       -0.79959403130695
C           -3.25494829185517       -1.37591351863338       -1.40438770443171
C           -3.98868223658396        0.59262032009346       -0.77813901357946
C           -2.84448125053970        1.28713173384334       -0.01432404634382
C           -1.08469494290608       -0.02159071598220        0.00760700375307
O            2.06467756335608        3.61059678521648       -1.04668705644990
S            0.23057603414580        2.32140031792492        0.36831132077302
O            1.32061085302943        2.78745795166019        1.24804122737978
C            1.37035527942806        0.16014529808353       -0.98033612815788
C            2.56371328840998        0.18998987855283        1.10259169102492
C            3.73739270556734       -0.79291089267125        0.96614953516178
C            3.45702119183778       -1.84548920973868       -0.95266225000948
C            2.27816926197583       -1.90543702831883       -1.84257290490347
C            1.27802824265695       -0.98057912419073       -1.79847255311552
C           -2.12905020338824        0.48578231074448        1.10468087778004
C           -2.95805615741181       -0.62987792877812        1.67545326550507
C           -3.98693834691024       -1.18479799092230        1.05267565737107
C           -4.31112698316876       -0.84993087374490       -0.35250305855408
C           -2.98119097170767        0.07796152165248       -1.82129375179485
C           -1.84696560473045        0.77930925287072       -1.06490222578430
H            2.17469307830665        3.60867540493902       -0.06313171678267
H            0.10195381670049        3.66011978148265       -1.64412769197071
H            1.00058192902162        2.13162989921020       -1.98485173393179
H           -1.54606252152327        2.36621155129100        2.06810574506222
H           -2.28853085754086        1.19348670993371        3.13184512549871
H           -0.62734507611416        0.95392231667670        2.59844409685167
H            2.99630733918546        1.57763182048234       -0.63488960051810
H            4.79150044429760       -0.04245853401216       -0.95750324700462
H            4.08830467739282       -2.96521812085627        0.87203407590682
H            1.77041955943174       -3.70964316345657        1.05893467008061
H           -0.39897259280109       -3.22150751815234        0.69135156238929
H           -2.18745830672322       -3.20432174108028       -0.80805906314847
H           -3.73059801364679       -1.96057842559178       -2.19206535395357
H           -4.83696676930726        1.22230186315863       -1.03218752011494
H           -2.98786099939951        2.34520937236581        0.18865394990966
H            2.71465019695892        0.99115757326087        1.82315436020414
H            4.54422791461948       -0.67755048473309        1.68501379622447
H            4.27894152268577       -2.42187039362442       -1.37919397959498
H            2.17238634893831       -2.77498409911503       -2.47449823547974
H            0.35743172934446       -1.15795994341317       -2.34056878217758
H           -2.69808709067561       -0.94352279393852        2.67619247041039
H           -4.57133038626340       -1.95658706731916        1.53217346227107
H           -5.32562499383457       -1.15104016670744       -0.61274153137452
H           -3.05616098378853        0.30214996669608       -2.88222462316603
H           -1.23661835688932        1.45016355251504       -1.66317911775718
