56
 energy: -84.738233550813 gnorm: 0.000034366827 xtb: 6.7.1 (edcfbbe)
C            0.83707945772512        2.94663331676929       -1.32474617041157
C            0.29722890935346        0.51131702411864        0.12983953356672
C           -1.69710101932887        1.36310468185721        2.25271574786893
C            1.27107988877130       -0.41280253205457        0.78252531921288
C            2.78171260884239        0.63530569380718       -0.33444582849092
C            3.94740662763424       -0.36398651095035       -0.44444246007924
C            3.37722407512179       -2.19510794885026        0.61658557448183
C            2.00714834047710       -2.68608170977310        0.93925718919888
C            0.97601321577780       -1.83328379920055        0.95638163006170
N           -0.35940394944803       -2.20684881308656        0.84592823274918
C           -1.19802014990622       -1.51388960717690       -0.02389575142023
C           -2.13083800315215       -2.14481241689288       -0.74408779376060
C           -3.26250162755783       -1.42909720096761       -1.38402629307228
C           -4.03023172000025        0.54322420839220       -0.81731532262649
C           -2.90241697939154        1.27016592951236       -0.05944608513780
C           -1.12107485022774       -0.01241550828639        0.01236797092203
O            2.00094864124173        3.64019227605368       -1.10068505169311
S            0.19937498829061        2.35094253790837        0.35594779416634
O            1.30416215338556        2.81512281588722        1.21587243359413
C            1.43369550789650       -0.00273061550240       -0.71154809770976
C            2.59369707189376        0.22686531437416        1.14480809570094
C            3.76336067344568       -0.76011044726600        1.02795019001782
C            3.56963226488153       -1.78961409624551       -0.89865417379763
C            2.39876958640793       -1.88163618320705       -1.82495443886742
C            1.39127555456991       -1.01331069529881       -1.76891139041501
C           -2.18832458662006        0.50587399867412        1.08548173215322
C           -3.00809981460697       -0.60618201182821        1.67598421564423
C           -4.02484214762602       -1.18793358238971        1.05783415466159
C           -4.33812173796368       -0.89253238099271       -0.35882395034892
C           -3.00534965252465        0.01620436898984       -1.83727312310491
C           -1.88826418387652        0.75039876507939       -1.08756466301449
H            2.12836626873207        3.64452045202228       -0.12022457419731
H            0.04496474329658        3.60007052131125       -1.71125942083810
H            0.99196645980688        2.09640893480827       -1.99432219787466
H           -1.62703523800517        2.41663878659054        2.00065207221010
H           -2.39883125053150        1.27915704535709        3.08156089719218
H           -0.72447069315581        1.02333066286847        2.60209236391807
H            3.00464692099828        1.64097754707026       -0.67273729531344
H            4.87620792002262        0.03836439258394       -0.83910661925621
H            4.12798170548769       -2.92530377799905        0.92201675835247
H            1.85034998156444       -3.75262433194030        0.99690512583667
H           -0.50305552239049       -3.20931417986329        0.83078875641171
H           -2.18739101577554       -3.22421570112926       -0.71768103735980
H           -3.71839693300479       -2.04307762945166       -2.16092808954213
H           -4.88362005700241        1.15579236405402       -1.09484248746026
H           -3.06100979900144        2.33085161818063        0.11636470899545
H            2.60470926048192        0.92545712092925        1.97523686981816
H            4.55011274275379       -0.66098496566776        1.77015489651412
H            4.41985357801980       -2.31763236377940       -1.33394158138876
H            2.42192367094904       -2.65526949386081       -2.57860845988947
H            0.54170591091935       -1.05982826819365       -2.43492230517481
H           -2.75346307020166       -0.89149608660089        2.68638993901258
H           -4.60515795312210       -1.95402225675560        1.55105286210958
H           -5.34538638452522       -1.21394988066531       -0.62262964077022
H           -3.07231031626833        0.21186307414783       -2.90434196751244
H           -1.28158288612573        1.41715137660228       -1.69463242569332
