46
 energy: -77.668314793352 gnorm: 0.000034491344 xtb: 6.7.1 (edcfbbe)
O            1.48060938228069        0.26473115762288        2.40504270044711
C            0.46135291115029        0.40631219087802        1.76356670789997
C            0.04640127853418        1.64245171536934        1.05614820919464
C            0.84561940406661        2.75632424668680        0.84349406208654
C            0.31444194596740        3.82820474769159        0.14088852450744
C           -0.98684649991619        3.79059062875305       -0.33966579269415
C           -1.79607325198415        2.68064149222528       -0.11726611712267
C           -1.25578382458808        1.62527760545489        0.57956409496343
S           -1.99431773256298        0.10270825595261        1.11551821597092
O           -2.77073274934277        0.29198201743558        2.31023361108218
O           -2.60374616398203       -0.67970619203493        0.08521768935219
N           -0.48799320942199       -0.55771111828766        1.57641032002366
C           -0.41223026460106       -1.87059526800340        2.18414956605506
C           -0.67664775101958       -2.97817170871861        1.16250618644566
C            0.47505861746043       -3.19339522554445        0.16762023454391
N            0.77994984614215       -2.02016122624440       -0.60571782881777
C            1.84884792139948       -1.17565690529189       -0.40964314901712
C            2.96899321559299       -1.32626861414774        0.39736044438145
C            3.91980971216975       -0.32579249617577        0.38352784118821
C            3.77592684628917        0.80519767912425       -0.41812107918118
C            2.67318382140184        0.95902262182788       -1.23274130180806
C            1.70202145286485       -0.03467804766722       -1.23455922103481
C            0.47702647710680       -0.21318242099145       -1.95970060931402
C           -0.18868713279236        0.54668055652554       -2.91342856129035
C           -1.35820380466152        0.05166625153455       -3.45317073247662
C           -1.85800983903933       -1.18920490816291       -3.06227128113787
C           -1.21814936763448       -1.95843858428759       -2.11123380527356
C           -0.05303811473229       -1.45771458418333       -1.54677778866005
H            1.85695602094804        2.76212333465455        1.21802287173611
H            0.92326155024121        4.70154654694845       -0.03588055595965
H           -1.38202903923345        4.63185493423901       -0.88759802922214
H           -2.81135918859777        2.63796825561524       -0.47685839988417
H           -1.16515726448901       -1.91796780591878        2.97956337738140
H            0.58417108335746       -1.95792797614905        2.62900753654886
H           -1.58834511463137       -2.72712251285546        0.61963059311054
H           -0.83839707796694       -3.91136261950030        1.70359813230212
H            0.20225076067434       -4.00724898322159       -0.51335640580426
H            1.37751417216341       -3.48673866273453        0.70748672672094
H            3.10344222473054       -2.19037393246671        1.03034754286744
H            4.79474805983988       -0.42160113612093        1.00964431135640
H            4.54305290358452        1.56552780900169       -0.40028940199108
H            2.56356346527850        1.82955152982066       -1.86205531356511
H            0.20947820319192        1.49984541453538       -3.22823831109700
H           -1.89256411069226        0.62615946296243       -4.19580687167866
H           -2.76860297234301       -1.55695422149998       -3.51223251947925
H           -1.62125078630089       -2.91599510618407       -1.82143220430902
