46
 energy: -77.578961549080 gnorm: 0.000062738210 xtb: 6.7.1 (edcfbbe)
O            1.66014974119956       -0.29474739663690        1.95842800684388
C            0.48261891775883        0.26873719549923        1.66846875233587
C            0.22676086940288        1.59520730421768        1.30486202871286
C            1.12927848545749        2.68126176477059        1.24794381197559
C            0.67288765595706        3.91546909132501        0.85688262697469
C           -0.66777507861652        4.12897151275928        0.51769377338576
C           -1.57842686562324        3.08078478930192        0.58451963994844
C           -1.12805325682374        1.84603878219537        0.97655668788488
S           -2.02398015835839        0.34069437804598        1.15970219639050
O           -2.96394686855484        0.33414828214758        2.25281157238400
O           -2.51668843301118       -0.20988829871068       -0.07638596322812
N           -0.64213150038610       -0.52817458517542        1.63604032560524
C           -0.73246317058234       -1.85554849740604        2.18459200080083
C           -0.83248956796390       -2.91955214033823        1.08909659126198
C            0.46445911658632       -3.05479980161880        0.27887463987317
N            0.70024116287229       -1.93319631289296       -0.59054235409339
C            1.60350941826190       -0.92575051681710       -0.41970868847632
C            2.48946588691505       -0.70909947362054        0.74141913265288
C            3.48940519534857        0.35215538895780        0.45741319914653
C            3.39785878536157        1.19090801684972       -0.61105789917034
C            2.40027197968390        1.05786933606309       -1.59057694843854
C            1.52231796345533       -0.02052335310745       -1.48713399786958
C            0.48274158987009       -0.51261203697031       -2.35042975671562
C           -0.06358889809053       -0.06159120246607       -3.54391999224841
C           -1.07054272522500       -0.80387461647281       -4.12925351384874
C           -1.52618827006591       -1.98450375168681       -3.54553968999052
C           -0.99771051695634       -2.45317413020574       -2.35853299012354
C            0.00402455866952       -1.70341162897025       -1.75821539403602
H            2.16002558493849        2.52118949663579        1.51937623935069
H            1.36235501118756        4.74516949925802        0.81187528088580
H           -0.99763198606056        5.10832963394344        0.21122414724089
H           -2.61913297217917        3.22261152609316        0.33687875730598
H           -1.63595265512129       -1.87904707698371        2.80349522717843
H            0.14548502039658       -2.02441866258463        2.81602885261893
H           -1.65460839131565       -2.64988149925504        0.42412545291977
H           -1.05445070270389       -3.87884692194097        1.55762633813637
H            0.40485199666439       -3.95581064818405       -0.34073382452414
H            1.31343519451806       -3.15599535387217        0.95898002449713
H            2.96508243804192       -1.62144754080263        1.12239662070787
H            4.26510548786395        0.47953092847732        1.19593749843119
H            4.12985155042987        1.97796689348987       -0.72218808314636
H            2.33491845939513        1.74972351429391       -2.41307756790286
H            0.29041215314933        0.85090097438773       -3.99945557438162
H           -1.51533100492197       -0.46777977997950       -5.05445710070379
H           -2.31307640793671       -2.54299710989506       -4.03084409975250
H           -1.36387894112432       -3.36866561098198       -1.92072027109245
