  126
       -186.53773406
 C         -1.2413344633       10.7504224453        0.4287870620
 C         -2.1959691050        9.6224908617       -0.0034470158
 C         -3.5488391674       10.2086467210       -0.4468504750
 C         -1.5824664280        8.8855012661       -1.1783054205
 C         -1.3121455898        9.5784849018       -2.3506260071
 C         -0.7853877581        8.9568143424       -3.4670916328
 C         -0.5354435416        7.5971754630       -3.4270968873
 C         -0.7932318065        6.8848803323       -2.2750697115
 C         -1.2966223532        7.5171375774       -1.1340923687
 N         -1.5366194187        6.7760315774        0.0147948426
 C         -1.2218778812        5.3944310380        0.0210285231
 C          0.1076290891        4.9811776927        0.0527523776
 C          0.4135489077        3.6363996647        0.0529655485
 C         -0.6051080211        2.6850291275        0.0223775512
 C         -0.2812968836        1.2597902778        0.0167469008
 N          1.0019191430        0.9105412042        0.0174837220
 C          1.2499428287       -0.3960970642        0.0066954457
 C          2.6466920189       -0.8274955425        0.0070277124
 C          2.9628985612       -2.1851857390        0.0229546537
 C          4.2811306364       -2.5909406039        0.0219781512
 C          5.3023170986       -1.6445213324        0.0045446681
 N          6.6574555939       -2.0607177015        0.0013538499
 C          7.4125653499       -1.9089397119        1.1556028794
 C          6.8153168161       -1.3989061206        2.3123175021
 C          7.5422555184       -1.2293280354        3.4715842934
 C          8.8808961991       -1.5755200716        3.5023299548
 C          9.4665272467       -2.1062629736        2.3683075671
 C          8.7582640700       -2.2886183707        1.1882370100
 C          9.4537342436       -2.9070927927       -0.0092498044
 C          9.9500940787       -4.3105522275        0.3838448245
 C         10.6420911476       -2.0132916315       -0.4087376244
 C          8.5237386036       -3.0335369398       -1.2005699298
 C          9.0039565518       -3.5753193213       -2.3851997763
 C          8.2148545857       -3.6889468666       -3.5143832017
 C          6.9093836719       -3.2341606766       -3.4739223863
 C          6.4063635639       -2.6927075205       -2.3099230882
 C          7.1937691127       -2.6027602791       -1.1581039524
 C          4.9897876436       -0.2876850429       -0.0106840500
 C          3.6716357469        0.1175911434       -0.0092139830
 N          0.3061382135       -1.3331299087       -0.0050959490
 C         -0.9495034023       -0.8943241796       -0.0020553162
 C         -2.0243606446       -1.8848530658       -0.0103630696
 C         -3.3556404616       -1.4735751121        0.0397889364
 C         -4.3711919172       -2.4064505205        0.0372857032
 C         -4.0702671760       -3.7649708195       -0.0168568736
 N         -5.1138088084       -4.7240219253       -0.0144670578
 C         -5.3316252836       -5.4800336278        1.1289357684
 C         -4.5511396217       -5.2566033819        2.2672918364
 C         -4.7380603648       -5.9989438224        3.4140383955
 C         -5.7170810201       -6.9751244807        3.4510498007
 C         -6.5098114165       -7.1776206913        2.3369492404
 C         -6.3443563045       -6.4438314117        1.1700103954
 C         -7.2728383325       -6.6926903823       -0.0030665486
 C         -7.1268647984       -8.1589428567       -0.4494876279
 C         -8.7179643079       -6.4138512479        0.4493749794
 C         -6.9480660855       -5.7953510092       -1.1818057647
 C         -7.7016513013       -5.8973976395       -2.3433856224
 C         -7.4354365380       -5.1300624676       -3.4618618582
 C         -6.3742128659       -4.2435633142       -3.4349702977
 C         -5.6099013636       -4.1214338159       -2.2939089674
 C         -5.8955520172       -4.8747948523       -1.1512307731
 C         -2.7417360325       -4.1788872903       -0.0703806138
 C         -1.7262916381       -3.2455958900       -0.0663333170
 N         -1.2886633792        0.3915658206        0.0091522092
 C         -1.9353386769        3.1018825863       -0.0061682842
 C         -2.2416519409        4.4464230711       -0.0071708785
 C         -2.0813936953        7.3499607791        1.1550427529
 C         -2.2592992264        6.5741748763        2.3045929933
 C         -2.8069403046        7.1144121787        3.4488307738
 C         -3.1794699238        8.4461157383        3.4720875702
 C         -2.9761510242        9.2228613194        2.3469689031
 C         -2.4256678352        8.7052511629        1.1822396112
 H         -1.0502547045       11.4340947618       -0.3938131363
 H         -1.6606005091       11.3197470950        1.2536676013
 H         -0.2916171040       10.3274935184        0.7514289633
 H         -4.0226943966       10.7504117485        0.3670069845
 H         -3.4213483589       10.8922345260       -1.2817065887
 H         -4.2147735047        9.4062117569       -0.7591235341
 H         -1.5200696199       10.6366315822       -2.4007956016
 H         -0.5839334397        9.5267579614       -4.3612015264
 H         -0.1430686142        7.0858330668       -4.2934756626
 H         -0.6092515763        5.8217187762       -2.2600114542
 H          0.8907939633        5.7247861452        0.0748533547
 H          1.4381290296        3.3010774986        0.0805136753
 H          2.1610560239       -2.9060019640        0.0411060874
 H          4.5351437056       -3.6406886770        0.0335615772
 H          5.7679403838       -1.1393043825        2.3027757357
 H          7.0587513839       -0.8299722197        4.3506271127
 H          9.4620617999       -1.4442371360        4.4022833857
 H         10.5079055855       -2.3878315301        2.4104772094
 H         10.6397781170       -4.2583939479        1.2216594120
 H          9.1056861133       -4.9338040158        0.6727047464
 H         10.4605658852       -4.7888095180       -0.4475671609
 H         11.3380825034       -1.9003882404        0.4178501008
 H         11.1811321137       -2.4368742206       -1.2516503024
 H         10.2828319785       -1.0257183919       -0.6925685054
 H         10.0261787568       -3.9187709321       -2.4350339229
 H          8.6195819536       -4.1182658666       -4.4181141452
 H          6.2797841529       -3.2956403625       -4.3490649053
 H          5.3911297134       -2.3273943170       -2.2929381212
 H          5.7900309385        0.4376525194       -0.0232828938
 H          3.4134887691        1.1644126869       -0.0265336819
 H         -3.5724520342       -0.4183486732        0.0873214698
 H         -5.4050874743       -2.0964438583        0.0773004875
 H         -3.7945897196       -4.4873057731        2.2541586169
 H         -4.1195352225       -5.8093477619        4.2786207373
 H         -5.8707734588       -7.5661158875        4.3410033349
 H         -7.2820296486       -7.9305070396        2.3846987613
 H         -7.7966038635       -8.3823564940       -1.2752970684
 H         -6.1054046071       -8.3460760131       -0.7757262514
 H         -7.3556216743       -8.8381118856        0.3672315380
 H         -8.8110712019       -5.3782373561        0.7712816899
 H         -9.4189089552       -6.5848166372       -0.3628874672
 H         -8.9963450118       -7.0569796975        1.2796909450
 H         -8.5219652530       -6.5980309911       -2.3832712175
 H         -8.0439075824       -5.2325553811       -4.3474529094
 H         -6.1354788545       -3.6474891387       -4.3031080599
 H         -4.7749097480       -3.4379651274       -2.2882405957
 H         -2.5199080873       -5.2351214473       -0.1128033396
 H         -0.6929009244       -3.5504826398       -0.1111251627
 H         -2.7136901697        2.3560862958       -0.0336515306
 H         -3.2694281276        4.7779299507       -0.0292264991
 H         -1.9577257365        5.5381380564        2.3020828654
 H         -2.9376440147        6.4929679520        4.3222223672
 H         -3.6132367077        8.8802059643        4.3599519619
 H         -3.2545011696       10.2652453795        2.3839791071
