  167
       -250.16451209
 C          6.3120356389        4.9110021062       -3.9858113539
 C          4.9950246928        5.0538879171       -3.8480767785
 C          4.0676245611        4.0954200602       -3.2743945818
 C          4.4623222468        2.8447519060       -2.7853737181
 C          3.5462548614        1.9786087542       -2.2299467684
 C          2.1990904794        2.3216868088       -2.1473863840
 C          1.2393856300        1.3377734681       -1.5467120917
 O          0.0691781172        1.9936798690       -1.0844343986
 C         -0.9501142518        1.2249615013       -0.6544512877
 C         -0.8698853005       -0.1475804476       -0.4164273154
 C         -1.9866498986       -0.8695029952       -0.0241526194
 C         -3.2335016711       -0.2841293108        0.1064785217
 C         -3.3263365463        1.0839559417       -0.1223999167
 C         -2.1912160366        1.8493499996       -0.4645995494
 C         -2.6368756747        3.2018444718       -0.6094021595
 C         -1.9952976138        4.3983613062       -0.8962172965
 C         -2.7468657361        5.5543420665       -0.9548265956
 C         -4.1213410689        5.5314491913       -0.7207798481
 C         -4.7816229752        4.3558753583       -0.4256574944
 C         -4.0351580228        3.1839108284       -0.3744393784
 N         -4.4328041129        1.9018431777       -0.1005541222
 C         -5.8009360412        1.4732277129       -0.0005225309
 C         -6.5656420973        1.5703741530       -1.3314023874
 C         -6.2254667645        0.4947343034       -2.3659945328
 C         -4.7966747702        0.5854361764       -2.9007683048
 C         -4.5989336930       -0.1677829202       -4.2157437989
 C         -3.1091304354       -0.3174945623       -4.5209687745
 O         -2.6097486755       -1.3359291391       -3.6773747230
 C         -1.2760144735       -1.5478744167       -3.5829351197
 C         -0.2862179578       -0.8117070241       -4.2279106628
 C          1.0643984239       -1.1047627765       -4.0423479374
 C          1.4879325306       -2.1270106092       -3.2134182782
 C          0.5083782946       -2.8725281737       -2.5705147836
 C         -0.8662088933       -2.6098297559       -2.7666870587
 C         -1.5843132971       -3.6054740707       -2.0307724384
 C         -2.9337060740       -3.8787845693       -1.8500659686
 C         -3.2885841150       -4.9554235263       -1.0616268556
 C         -2.3201511796       -5.7414170461       -0.4346296516
 C         -0.9714915892       -5.4879770396       -0.5951471106
 C         -0.6064335120       -4.4269542968       -1.4135484123
 N          0.6479280825       -3.9684948838       -1.7454011934
 C          1.8556927719       -4.4772743701       -1.2466692841
 C          2.1741214132       -5.8127927429       -1.3648900742
 C          3.3501181904       -6.3250403252       -0.8201573838
 C          4.2277736867       -5.4758608941       -0.1313563595
 C          3.9381175653       -4.1437106903       -0.0024538646
 N          4.7599529629       -3.2470447828        0.7169153297
 C          4.7606746863       -3.1248071081        2.0875549784
 C          4.3245317169       -4.0292987680        3.0455868906
 C          4.4391385328       -3.6618232656        4.3722893622
 C          4.9703863818       -2.4258895097        4.7391484143
 C          5.3963591382       -1.5165005572        3.7884299628
 C          5.2890341771       -1.8617214764        2.4494507237
 C          5.5968681170       -1.1886073164        1.2185840898
 C          6.0525068387        0.0963024181        0.9114579029
 O          6.2634965414        0.9490842010        1.9507032649
 C          6.1547422759        2.3412139389        1.7237231440
 C          4.7701858838        2.7418259767        1.2031046827
 C          4.4853126515        4.2238982317        1.4340201060
 C          3.2926277166        4.7378521523        0.6230453679
 C          1.9985137581        3.9468651868        0.8030500288
 C          1.4852171462        3.9333958467        2.2444849230
 N          0.1804923514        3.3354988568        2.3489074033
 C         -1.0089343400        4.0138482163        2.4272560867
 C         -1.2709959540        5.3718159436        2.2967128290
 C         -2.5798025168        5.7932470085        2.4258622238
 C         -3.6126336263        4.8928896584        2.6776932055
 C         -3.3631851760        3.5401931729        2.8060641157
 C         -2.0563304740        3.0940497167        2.6820484222
 C         -1.4456548058        1.7993072487        2.7405364132
 C         -1.9480262905        0.5234014473        3.0218644451
 O         -3.2564841969        0.4522215337        3.3625051387
 C         -3.7630591452       -0.7021200807        4.0264560162
 C         -4.4855332084       -1.6386172882        3.0964675088
 C         -5.6874344450       -1.2317595728        2.5193037940
 C         -6.3769706041       -2.0648446423        1.6665564305
 C         -5.9085220975       -3.3538043848        1.3764415650
 C         -6.6916395174       -4.2148256062        0.5131705859
 C         -6.5533898423       -5.5349365162        0.3752543518
 C         -4.6967445549       -3.7498655942        1.9555177284
 C         -3.9985444118       -2.9054364360        2.7915932672
 C         -1.0566303619       -0.5452888896        2.9612952290
 C          0.2872854790       -0.3438708234        2.6694383787
 C          0.8111547837        0.9160144137        2.4515733060
 C         -0.0687530161        1.9916129870        2.4960925713
 C          6.2585686578        0.4059924183       -0.4310680153
 C          5.9776485057       -0.5130293412       -1.4361599179
 C          5.4551923349       -1.7607957158       -1.1564701846
 C          5.2616123580       -2.0824656365        0.1802162866
 C          2.7381198761       -3.5902063747       -0.5500332651
 C          2.4252321723       -2.2712585648       -0.2972417653
 N          2.1924172155       -1.1606789517       -0.0412414025
 C          1.7898913582        3.5486735679       -2.6546937295
 C          2.7089800235        4.4210851608       -3.1999660447
 H          6.9149773058        5.6857157046       -4.4270558406
 H          6.8392136405        4.0261451436       -3.6736294547
 H          4.5352702597        5.9737238017       -4.1905501579
 H          5.4992246402        2.5515903228       -2.8418527438
 H          3.8642753808        1.0171498534       -1.8518582752
 H          1.7278958431        0.7860078169       -0.7331305014
 H          0.9612330168        0.5966129651       -2.3117143756
 H          0.0722529667       -0.6608458918       -0.5082716931
 H         -1.8844972917       -1.9273164814        0.1619258718
 H         -4.0882404433       -0.8833101272        0.3738759628
 H         -0.9301797234        4.4117838207       -1.0626175114
 H         -2.2675536077        6.4958406510       -1.1787399855
 H         -4.6795410408        6.4549513186       -0.7662919822
 H         -5.8431603702        4.3569336515       -0.2297360656
 H         -6.3069393370        2.1038745156        0.7397548268
 H         -5.8134959311        0.4442646889        0.3596684977
 H         -7.6313186951        1.4993413534       -1.1015100742
 H         -6.3850542430        2.5530230659       -1.7714413284
 H         -6.9225682682        0.6087804043       -3.2007369294
 H         -6.3889220983       -0.4947335910       -1.9336641621
 H         -4.5280734546        1.6345934185       -3.0510900128
 H         -4.1060539671        0.1601965306       -2.1748811043
 H         -5.0319626822       -1.1665130824       -4.1415473371
 H         -5.0865601830        0.3585165181       -5.0378637046
 H         -2.5960441749        0.6331578270       -4.3265883171
 H         -2.9504990426       -0.5974450876       -5.5720470030
 H         -0.5489964023        0.0000219346       -4.8878610039
 H          1.7984072698       -0.5103481102       -4.5661015005
 H          2.5369394121       -2.3365499545       -3.0809319171
 H         -3.6773603716       -3.2552570928       -2.3192733619
 H         -4.3331825660       -5.1884663446       -0.9187178070
 H         -2.6308427858       -6.5673134597        0.1886598955
 H         -0.2256818830       -6.0915817793       -0.1001294863
 H          1.5045049547       -6.4638660796       -1.9083968618
 H          3.5881819178       -7.3697084165       -0.9326056654
 H          5.1417522977       -5.8657343616        0.2919962090
 H          3.9084631204       -4.9833076400        2.7577448338
 H          4.1101202945       -4.3447224860        5.1417384622
 H          5.0444321241       -2.1769422892        5.7876108117
 H          5.8015417475       -0.5568494024        4.0681262658
 H          6.3254795721        2.7815373565        2.7107158177
 H          6.9443658528        2.6979726516        1.0500964455
 H          4.6929905082        2.5198088929        0.1377219590
 H          4.0330746110        2.1283826252        1.7243612454
 H          5.3645837515        4.8024482359        1.1393272439
 H          4.3212358773        4.4037694884        2.4985558512
 H          3.5532572586        4.7095965661       -0.4369374492
 H          3.1171130599        5.7825431891        0.8925190332
 H          1.2293726677        4.3894633542        0.1678404194
 H          2.1429554506        2.9226755925        0.4672976056
 H          2.1699939608        3.3696913142        2.8842264534
 H          1.4239297802        4.9558036185        2.6276809720
 H         -0.4846552705        6.0821257086        2.0905026773
 H         -2.8092730932        6.8436063664        2.3248698394
 H         -4.6223398906        5.2647092797        2.7696932479
 H         -4.1558339274        2.8344751850        2.9974351452
 H         -4.4749043295       -0.3017796097        4.7598035196
 H         -2.9650066894       -1.2190702043        4.5678299871
 H         -6.0736765116       -0.2497447102        2.7541939748
 H         -7.3103128968       -1.7338073865        1.2301815551
 H         -7.4760598045       -3.7131341673       -0.0420543866
 H         -5.8236757460       -6.1008865507        0.9281618283
 H         -7.1874822821       -6.0987217200       -0.2872761137
 H         -4.2929993185       -4.7255648967        1.7375203943
 H         -3.0686199862       -3.2433364198        3.2278198838
 H         -1.4033856239       -1.5525776316        3.1231238010
 H          0.9431825969       -1.1986408706        2.6108122911
 H          1.8610836348        1.0380510877        2.2424521441
 H          6.6424566686        1.3753823878       -0.7074601229
 H          6.1581027003       -0.2321696889       -2.4634137089
 H          5.2065923143       -2.4585077134       -1.9410608957
 H          0.7444941528        3.8139881191       -2.6167959505
 H          2.3758233885        5.3765750853       -3.5814231890
