51
 energy: -83.649848381981 gnorm: 0.000066133219 xtb: 6.7.1 (edcfbbe)
C            1.65846378644341        3.89036540083923       -0.03032866965538
C            1.29196037230724        3.30764157578279        1.17147881643205
C            0.62765123038883        2.09506655053616        1.18177678976900
C            0.32863075800988        1.46708908232154       -0.02202053782489
N           -0.32328004062852        0.21382119683764       -0.01676976618823
C            0.30869769513184       -1.00978825436561        0.01619921592802
C            1.72052884677667       -1.21411293658634        0.05128836908316
C            2.33349392368218       -2.44598879887378        0.07976098049437
C            3.72766984040061       -2.37276976187508        0.11364489141405
C            4.20559666456902       -1.08200246420000        0.11205076740176
C            5.56196087051159       -0.63945819287528        0.14161389109787
C            6.70436743809738       -1.40084554705025        0.17511694494057
C            7.88062784376460       -0.63027445198447        0.19807241220440
C            7.63531237065055        0.70648312382869        0.18238873688492
S            5.95392464396544        1.05695039733904        0.13858695648687
S            2.89764582374966        0.06357418574019        0.06700821828511
N           -0.55034058680575       -2.00841195744195        0.01383047594963
C           -1.77910720457362       -1.44012846820107       -0.02090440643189
C           -3.04593356539513       -2.08949160313963       -0.03550257480768
C           -3.14383980350610       -3.48441650096216       -0.01524727749416
C           -4.37354987854534       -4.09387820730165       -0.02840077494346
C           -5.52468191437886       -3.30965281833272       -0.06194598505081
C           -5.43993839205655       -1.93701681987305       -0.08236138245035
C           -4.20195520154882       -1.27623941482842       -0.07025072905431
C           -4.08262785904124        0.17206799304250       -0.09221693529844
C           -5.20936038160021        1.00535464017697       -0.12811373143419
C           -5.10253194290527        2.37605703177019       -0.15035517674802
C           -3.84974686942951        2.98125869531753       -0.13793102707992
C           -2.71988491537632        2.20216228854654       -0.10241656026105
C           -2.80822710743827        0.80294124401141       -0.07856060429627
C           -1.67073830628778       -0.04832941899717       -0.04084849531640
C            0.69352768868387        2.05065436101068       -1.22999395360443
C            1.35753882455385        3.26344968364031       -1.22808891549440
H            2.18062654790555        4.83501307927357       -0.03345935195456
H            1.52615197722654        3.79668343515175        2.10481995699393
H            0.33712360473895        1.62811246163831        2.11123299722248
H            1.76483678267189       -3.35706090613367        0.07553031763545
H            4.36812195363850       -3.23533105921419        0.13895641949334
H            6.69631406877378       -2.47524793733558        0.18267386168051
H            8.86906560188478       -1.05302104542026        0.22526727928505
H            8.33963285088955        1.51408128809070        0.19364422459662
H           -2.22736515089230       -4.05300686638628        0.01088199471148
H           -4.45368368665905       -5.17079985263476       -0.01289193446760
H           -6.49546187291563       -3.78408903083695       -0.07212891123884
H           -6.35838689360110       -1.37236418778611       -0.10816237147520
H           -6.19678269673552        0.57291518938690       -0.13915842212817
H           -5.99438145541807        2.98474886653367       -0.17788410547712
H           -3.76552389315352        4.05777662259038       -0.15613963063898
H           -1.74884534847890        2.67195936458430       -0.09300580748789
H            0.45385862449082        1.54945196191834       -2.15611917791531
H            1.64284433347235        3.71804578274756       -2.16461730178595
