51
 energy: -83.588633163337 gnorm: 0.000031273803 xtb: 6.7.1 (edcfbbe)
C            1.22106347320981        4.09646206412546       -0.00442229348271
C            0.87495276171723        3.49605246764170        1.19474625121175
C            0.20913886968257        2.28427441601735        1.19830118116377
C           -0.11158526495672        1.67467262893963       -0.00918870581050
N           -0.77107825492253        0.42609233593587       -0.01115090182980
C           -0.12722517440664       -0.81339042959630       -0.01223698296928
C            1.24102287270270       -1.02591285338206       -0.01311321484272
C            1.84750391831765       -2.31721310657866       -0.01295079615928
C            3.20133744318123       -2.29110130726451       -0.00897984789484
C            3.75480215468237       -0.97695266657073       -0.00562988012731
C            5.08058007703016       -0.60692587549717        0.00100472544488
C            5.62453804345028        0.69202370878286        0.00574761372421
C            7.00977463080431        0.70153816913191        0.01285633295267
C            7.56585236786071       -0.55587268233939        0.01365769662091
S            6.37735267375709       -1.80330217557894        0.00560101704302
S            2.46679243959962        0.23523520543143       -0.00970955263247
N           -1.01926775123688       -1.81706068162083       -0.00908522960819
C           -2.22410700718776       -1.24204548082384       -0.00471428277424
C           -3.49910201704300       -1.87951721004181        0.00285536614583
C           -3.60231851841958       -3.27344307197989        0.00667343097657
C           -4.83565170046803       -3.87921792573230        0.01639794868043
C           -5.98219396836808       -3.08957715329484        0.02262387568397
C           -5.89160514519904       -1.71543032223637        0.01853053982336
C           -4.65190107073064       -1.06028920292006        0.00816394812051
C           -4.52719123922828        0.38824301050252        0.00250733746202
C           -5.64831416201416        1.22593882762167        0.00340661501179
C           -5.53635115671499        2.59814525273008       -0.00340574940340
C           -4.28013770168710        3.19951111682557       -0.01209360639219
C           -3.15353878563510        2.41731067515284       -0.01292955262415
C           -3.24524505650415        1.01407215103757       -0.00520485534187
C           -2.11305939237084        0.16726172125509       -0.00609064834649
C            0.23551572757609        2.27447468492505       -1.21427362479455
C            0.90107860154282        3.48645377417840       -1.20590634177194
H            1.74343499540689        5.04124346813673       -0.00248721361599
H            1.12719733599890        3.97003937558773        2.13125420730671
H           -0.06428706990588        1.80342135825615        2.12574630188195
H            1.22960411381105       -3.19561632141007       -0.01541071224693
H            3.84248061250146       -3.15462153824549       -0.00783958855773
H            4.99625687506094        1.56427455142539        0.00402274474763
H            7.60429186391627        1.59830350759093        0.01739712903045
H            8.60358315041032       -0.82180574042903        0.01851652559153
H           -2.68776567342322       -3.84556608167476        0.00212045069142
H           -4.91935544390507       -4.95567549410205        0.01952149336865
H           -6.95558434083719       -3.55841491706168        0.03084990402298
H           -6.80808242309578       -1.14720514435302        0.02393794310390
H           -6.63808386810080        0.79876660407645        0.00910374782963
H           -6.42620767711974        3.20995148066463       -0.00249246225714
H           -4.19328885894133        4.27576846683532       -0.01833506091989
H           -2.18019626655068        2.88184180616423       -0.02035834306462
H           -0.01740367678727        1.78610395321348       -2.14357974059148
H            1.17347524468481        3.95305571634672       -2.14046933651309
