51
 energy: -83.588628579816 gnorm: 0.000088139156 xtb: 6.7.1 (edcfbbe)
C            1.17816073946969        4.11807130245744        0.02865882359584
C            0.68093208064966        3.57175773753433        1.20087085205246
C            0.02800921365172        2.35366629130496        1.17742096626208
C           -0.12811421804379        1.68188686612358       -0.02998041309250
N           -0.77425688600815        0.42762641401306       -0.05726053506966
C           -0.11778955862862       -0.80551555733376       -0.07452863270611
C            1.25185602394887       -1.00869454752519       -0.06981362033012
C            1.86382418505362       -2.29761444078894       -0.07316593107828
C            3.21707947754996       -2.26631398665931       -0.03687294266015
C            3.76447680198760       -0.95030806732830       -0.00364957056924
C            5.08847815456687       -0.57511896341203        0.03739248860690
C            5.62661109817985        0.72550207664089        0.06998467097000
C            7.01148667093409        0.74045250987236        0.10618525145683
C            7.57256543809552       -0.51458707936477        0.10291233557704
S            6.38969133776822       -1.76630219174576        0.05473487758172
S            2.47210318680647        0.25674035419148       -0.02564524482424
N           -0.99972661448862       -1.81836222688129       -0.06781515880118
C           -2.20985173031052       -1.25608270976353       -0.03789004628767
C           -3.47700755084989       -1.90810892439203       -0.00265050063727
C           -3.56392186988281       -3.30307611345590        0.00702896537845
C           -4.78937234121810       -3.92284029377394        0.05608982881744
C           -5.94401909457584       -3.14627088092591        0.09806658209370
C           -5.86947070525954       -1.77115074495890        0.08636022489585
C           -4.63837697154486       -1.10211112189530        0.03281713790925
C           -4.53026088170949        0.34758929138941        0.00732490059854
C           -5.66132314777361        1.17169448505270        0.01062390444894
C           -5.56647278352385        2.54468749522912       -0.02797665431196
C           -4.31817489122130        3.16008539317062       -0.07912514192731
C           -3.18220290390006        2.39149117573082       -0.08130710860663
C           -3.25594592829058        0.98796420888357       -0.03186419684946
C           -2.11368465670866        0.15444117885444       -0.03179096240726
C            0.37021331084893        2.22765599597473       -1.20768135405699
C            1.02184358038758        3.44701958368231       -1.17227776237276
H            1.69008448370107        5.06823945947276        0.05253552137373
H            0.80589041175232        4.09325843210947        2.13780870760093
H           -0.36352042830981        1.91572334396806        2.08371454911813
H            1.24976564004932       -3.17827328301071       -0.10029036986362
H            3.86147046030268       -3.12739006259758       -0.03107017227689
H            4.99494572713751        1.59530517213512        0.06609111142193
H            7.60193260540695        1.63947365318657        0.13421480819111
H            8.61104923057903       -0.77656329731133        0.12587090292678
H           -2.64333862224225       -3.86466749227797       -0.02274618492023
H           -4.86056610087952       -5.00016984466026        0.06436761869781
H           -6.91113351899128       -3.62612286514231        0.14034792662942
H           -6.79172036970263       -1.21341972709548        0.12150082643944
H           -6.64551499743595        0.73281684918469        0.04059275349022
H           -6.46358914153876        3.14577741941993       -0.02346598967908
H           -4.24463663097735        4.23663816084847       -0.11837310074742
H           -2.21552094995422        2.86731113627389       -0.12821304467254
H            0.24444235169212        1.69237229567341       -2.13690306186928
H            1.41047349915963        3.87162482856561       -2.08545628253166
