51
 energy: -83.651701702678 gnorm: 0.000143010555 xtb: 6.7.1 (edcfbbe)
C            1.24159619169107        4.04811269739262       -0.02358260050934
C            0.90103960251236        3.45255486044681        1.17971634310201
C            0.23106341519165        2.24306128297692        1.19146103814935
C           -0.10033819928107        1.63124199383360       -0.01220672943134
N           -0.76640453878551        0.38577593725662       -0.00714126924651
C           -0.15160860163463       -0.84706874581692       -0.00962477108401
C            1.25696182068573       -1.07544922817634       -0.01171206815460
C            1.84747324279284       -2.31799374812165       -0.02015890349318
C            3.24362210643221       -2.26959597727859       -0.01605607013910
C            3.74416685798531       -0.98969970592919       -0.00359846630904
C            5.10469059633781       -0.56613579489391        0.00609203075500
C            5.59541781877366        0.71483993527819        0.02252238026245
C            7.00105477235451        0.76752374305228        0.02973776198568
C            7.57317890605287       -0.46505118293555        0.01915242591929
S            6.40473018122517       -1.72539065594605       -0.00099006824155
S            2.45697682444635        0.18330099320432        0.00175504191596
N           -1.02496310880724       -1.83306497665561       -0.00684497734999
C           -2.24581048087241       -1.24729214681781       -0.00209609115779
C           -3.52151195688388       -1.87917221338741        0.00265337836855
C           -3.63810722338410       -3.27278768187994        0.00131120424244
C           -4.87616456901984       -3.86524713565933        0.00559993087572
C           -6.01673834053566       -3.06506262677656        0.01180926425467
C           -5.91352688952742       -1.69353460372870        0.01344829055686
C           -4.66649835752410       -1.04987152318260        0.00859937652157
C           -4.52729988002417        0.39681482629107        0.00848486742438
C           -5.64300131528872        1.24556146662886        0.01409889206516
C           -5.51811487244298        2.61489901799709        0.01210112983098
C           -4.25720166871128        3.20296042365842        0.00393157686976
C           -3.13764591950105        2.40833350835834       -0.00100737995582
C           -3.24421595044935        1.01014813200796        0.00176156435072
C           -2.11809640902336        0.14293404009881       -0.00210366524973
C            0.24068305999801        2.22652747289978       -1.22148178684991
C            0.91072520816168        3.43600928533765       -1.22124344170467
H            1.76599479045902        4.99175720021675       -0.02799842676147
H            1.15868206971667        3.92999369132423        2.11300521513598
H           -0.04080027299407        1.76748076782992        2.12209593940311
H            1.26208203571848       -3.21827986963496       -0.02873592740170
H            3.87857035875760       -3.13791889741466       -0.02134680166596
H            4.95607165754926        1.58011066735770        0.02910656100930
H            7.56359966490641        1.68386818225430        0.04271902597117
H            8.61459260927540       -0.71784636016144        0.02140409731950
H           -2.72923401559625       -3.85398247852649       -0.00344112082252
H           -4.97088353364408       -4.94107063650701        0.00405753569807
H           -6.99398953614407       -3.52610774290462        0.01533620946342
H           -6.82444106116619       -1.11626933707338        0.01842201478801
H           -6.63618146061820        0.82646507320443        0.02011675911894
H           -6.40192086226001        3.23578987549904        0.01659344382525
H           -4.15857755679305        4.27841230864329        0.00165069056442
H           -2.16056114953161        2.86535351572984       -0.00742551536800
H           -0.02356807870818        1.73786879691639       -2.14754588913537
H            1.17586959835953        3.90044211997646       -2.15897926296032
