  60
        -98.14241939
 C         -6.4992140667       -4.1503275654        0.4157446204
 C         -7.1160542180       -3.3067512175       -0.4934854194
 C         -6.6865579158       -2.0018865722       -0.6396498885
 C         -5.6314237652       -1.5203072628        0.1337880389
 N         -5.2042911990       -0.1915594894       -0.0039451128
 C         -6.1596767988        0.8143775673       -0.2136876988
 C         -5.9066385436        1.8530303401       -1.1085437546
 C         -6.8529091001        2.8381496414       -1.3142909686
 C         -8.0631477140        2.7995113752       -0.6412754056
 C         -8.3208821339        1.7660576003        0.2444487430
 C         -7.3780567086        0.7800688019        0.4624364348
 C         -3.8545323736        0.1290772434        0.0663106469
 C         -2.8790005155       -0.7633080637       -0.3923984569
 C         -1.5468673687       -0.4330621021       -0.3260631756
 C         -1.1304327101        0.7987014976        0.1916483413
 C          0.2938189301        1.1041954595        0.2224045280
 C          0.7993462046        2.4187654046        0.4181240648
 N          2.0718169495        2.6927509118        0.4582226039
 C          2.9335775807        1.6723113002        0.2931907675
 N          4.2532994819        1.9538756723        0.3481369975
 C          5.0409681561        0.9337482835        0.1534820321
 C          4.5448994486       -0.4066024121       -0.1052488465
 N          3.2771687737       -0.6977890524       -0.1536537050
 C          2.4417782771        0.3503066872        0.0532630654
 N          1.1305603477        0.0982812182        0.0301351082
 C          5.6925605437       -1.2845741542       -0.2791485345
 C          5.8692642150       -2.6195001888       -0.5429964532
 C          7.1851586980       -3.1094198143       -0.6416096875
 C          8.2921887813       -2.3092663586       -0.4853705917
 C          8.1456715551       -0.9299080534       -0.2139388884
 C          9.1601586768        0.0365550483       -0.0270099338
 C          8.8334943319        1.3472332180        0.2288247283
 C          7.5034797012        1.7994234130        0.3189409040
 C          6.4944393357        0.8859284560        0.1435595005
 C          6.8323719271       -0.4624686120       -0.1197918017
 C         -2.1059305597        1.6823649991        0.6599001299
 C         -3.4414179986        1.3539005491        0.6001184236
 C         -5.0174244415       -2.3708454510        1.0520327435
 C         -5.4488347597       -3.6764960357        1.1846792170
 H         -6.8354555141       -5.1701255985        0.5250541589
 H         -7.9335906226       -3.6686157485       -1.0993486729
 H         -7.1632701177       -1.3472559668       -1.3545288514
 H         -4.9676384150        1.8773153623       -1.6419770231
 H         -6.6466178691        3.6366855802       -2.0115223649
 H         -8.8007893228        3.5700056138       -0.8061908826
 H         -9.2600157625        1.7313495085        0.7765665476
 H         -7.5765390051       -0.0215600380        1.1586807250
 H         -3.1825495214       -1.7110836534       -0.8117704401
 H         -0.7916643145       -1.1139130642       -0.6853858398
 H          0.1379279733        3.2680089550        0.5232491258
 H          5.0269640489       -3.2808816444       -0.6725333493
 H          7.3239275513       -4.1607756742       -0.8494290359
 H          9.2833105975       -2.7314359329       -0.5699044401
 H         10.1966366671       -0.2630017492       -0.0871769928
 H          9.6273501111        2.0672058606        0.3674436068
 H          7.2901630308        2.8374602780        0.5204455530
 H         -1.8240316534        2.6246176408        1.1039322613
 H         -4.1825378552        2.0417669558        0.9799880604
 H         -4.2061049456       -1.9998894566        1.6609418426
 H         -4.9658490031       -4.3258519576        1.8997819500
