  60
        -98.14241939
 C         -6.4992140667       -4.1503275654        0.4157446204
 C         -7.1160542180       -3.3067512175       -0.4934854194
 C         -6.6865579158       -2.0018865722       -0.6396498885
 C         -5.6314237652       -1.5203072628        0.1337880389
 N         -5.2042911990       -0.1915594894       -0.0039451128
 C         -6.1596767988        0.8143775673       -0.2136876988
 C         -5.9066385436        1.8530303401       -1.1085437546
 C         -6.8529091001        2.8381496414       -1.3142909686
 C         -8.0631477140        2.7995113752       -0.6412754056
 C         -8.3208821339        1.7660576003        0.2444487430
 C         -7.3780567086        0.7800688019        0.4624364348
 C         -3.8545323736        0.1290772434        0.0663106469
 C         -2.8790005155       -0.7633080637       -0.3923984569
 C         -1.5468673687       -0.4330621021       -0.3260631756
 C         -1.1304327101        0.7987014976        0.1916483413
 C          0.2938189301        1.1041954595        0.2224045280
 C          0.7993462046        2.4187654046        0.4181240648
 N          2.0718169495        2.6927509118        0.4582226039
 C          2.9335775807        1.6723113002        0.2931907675
 N          4.2532994819        1.9538756723        0.3481369975
 C          5.0409681561        0.9337482835        0.1534820321
 C          4.5448994486       -0.4066024121       -0.1052488465
 N          3.2771687737       -0.6977890524       -0.1536537050
 C          2.4417782771        0.3503066872        0.0532630654
 N          1.1305603477        0.0982812182        0.0301351082
 C          5.6925605437       -1.2845741542       -0.2791485345
 C          5.8692642150       -2.6195001888       -0.5429964532
 C          7.1851586980       -3.1094198143       -0.6416096875
 C          8.2921887813       -2.3092663586       -0.4853705917
 C          8.1456715551       -0.9299080534       -0.2139388884
 C          9.1601586768        0.0365550483       -0.0270099338
 C          8.8334943319        1.3472332180        0.2288247283
 C          7.5034797012        1.7994234130        0.3189409040
 C          6.4944393357        0.8859284560        0.1435595005
 C          6.8323719271       -0.4624686120       -0.1197918017
 C         -2.1059305597        1.6823649991        0.6599001299
 C         -3.4414179986        1.3539005491        0.6001184236
 C         -5.0174244415       -2.3708454510        1.0520327435
 C         -5.4488347597       -3.6764960357        1.1846792170
 H         -6.8354555141       -5.1701255985        0.5250541589
 H         -7.9335906226       -3.6686157485       -1.0993486729
 H         -7.1632701177       -1.3472559668       -1.3545288514
 H         -4.9676384150        1.8773153623       -1.6419770231
 H         -6.6466178691        3.6366855802       -2.0115223649
 H         -8.8007893228        3.5700056138       -0.8061908826
 H         -9.2600157625        1.7313495085        0.7765665476
 H         -7.5765390051       -0.0215600380        1.1586807250
 H         -3.1825495214       -1.7110836534       -0.8117704401
 H         -0.7916643145       -1.1139130642       -0.6853858398
 H          0.1379279733        3.2680089550        0.5232491258
 H          5.0269640489       -3.2808816444       -0.6725333493
 H          7.3239275513       -4.1607756742       -0.8494290359
 H          9.2833105975       -2.7314359329       -0.5699044401
 H         10.1966366671       -0.2630017492       -0.0871769928
 H          9.6273501111        2.0672058606        0.3674436068
 H          7.2901630308        2.8374602780        0.5204455530
 H         -1.8240316534        2.6246176408        1.1039322613
 H         -4.1825378552        2.0417669558        0.9799880604
 H         -4.2061049456       -1.9998894566        1.6609418426
 H         -4.9658490031       -4.3258519576        1.8997819500
  60
        -98.14231830
 C         -8.0075277334       -2.4372959827        2.0346708639
 C         -6.8442831775       -3.0168554829        1.5547441662
 C         -5.9167417218       -2.2583995531        0.8669639625
 C         -6.1404164463       -0.8982530407        0.6582229066
 N         -5.2033693065       -0.1199510508       -0.0375529143
 C         -5.6651851958        0.8665250665       -0.9228351244
 C         -6.7648049522        0.6128163553       -1.7408306252
 C         -7.2283507403        1.5876041228       -2.6031419703
 C         -6.6026199604        2.8216566081       -2.6675298391
 C         -5.5091501253        3.0776313298       -1.8564985428
 C         -5.0426724440        2.1121269267       -0.9854415452
 C         -3.8420148634       -0.2985467545        0.1701808159
 C         -3.3581626485       -0.7189515175        1.4132630182
 C         -2.0084166327       -0.8915684494        1.6213373050
 C         -1.0896406859       -0.6397234338        0.6000010369
 C          0.3473064474       -0.7814348184        0.7914736268
 C          0.9081561694       -1.5912236418        1.8166786974
 N          2.1898803618       -1.6827310144        2.0271902687
 C          3.0039604865       -0.9797455942        1.2183796725
 N          4.3309082311       -1.0414402241        1.4619352372
 C          5.0738074147       -0.3655681313        0.6312511246
 C          4.5247684231        0.3919071771       -0.4797240045
 N          3.2487716740        0.4674919336       -0.7259420238
 C          2.4582528693       -0.2161920067        0.1380560780
 N          1.1375975539       -0.1322369767       -0.0458247602
 C          5.6326224680        1.0126631577       -1.1908779176
 C          5.7546794438        1.8260008655       -2.2892724335
 C          7.0455385048        2.2340787382       -2.6746519600
 C          8.1806273371        1.8538666003       -1.9985216004
 C          8.0905364771        1.0171883022       -0.8629205156
 C          9.1400056277        0.5316460558       -0.0498203038
 C          8.8677256572       -0.2781333552        1.0273028767
 C          7.5613803957       -0.6656449348        1.3805436158
 C          6.5196385834       -0.2112495394        0.6114071587
 C          6.8014491294        0.6217214926       -0.4968849692
 C         -1.5752092941       -0.2109454466       -0.6394950283
 C         -2.9229698098       -0.0516395215       -0.8563483356
 C         -7.3129179428       -0.3196121966        1.1416801199
 C         -8.2378039166       -1.0880867692        1.8217068115
 H         -8.7300427790       -3.0334414591        2.5709019445
 H         -6.6605781636       -4.0696780033        1.7102157125
 H         -5.0155327832       -2.7135992359        0.4829312083
 H         -7.2487805271       -0.3519194054       -1.6956442943
 H         -8.0792528652        1.3787379895       -3.2346268871
 H         -6.9656642781        3.5797856088       -3.3446555831
 H         -5.0192982599        4.0391295751       -1.8960887650
 H         -4.1967330666        2.3168476635       -0.3458938589
 H         -4.0533094875       -0.8913596669        2.2216769565
 H         -1.6661362320       -1.1858670760        2.6017792820
 H          0.2830364053       -2.1958137297        2.4601267752
 H          4.8889702132        2.1481436506       -2.8464933490
 H          7.1410497176        2.8752687808       -3.5392248696
 H          9.1506263581        2.1942957970       -2.3315162798
 H         10.1600324676        0.8028823138       -0.2812388180
 H          9.6873831322       -0.6359645788        1.6338184816
 H          7.3906776217       -1.3023894756        2.2343644642
 H         -0.8638212598       -0.0176056833       -1.4267650822
 H         -3.2825751953        0.2616674855       -1.8253017884
 H         -7.4893194791        0.7342870914        0.9834099052
 H         -9.1402497814       -0.6274831386        2.1955565702
  60
        -98.14223268
 C         -6.5767271084       -4.0138686135       -1.0050444832
 C         -5.5627715083       -3.4183610961       -1.7373127420
 C         -5.1049271026       -2.1585558348       -1.4032793808
 C         -5.6538422952       -1.4786951739       -0.3168258431
 N         -5.1998440536       -0.1969308842        0.0252821889
 C         -6.1233170668        0.7601823595        0.4727657584
 C         -7.3839086379        0.8521530296       -0.1143486243
 C         -8.2924195913        1.7906371742        0.3359000814
 C         -7.9583803543        2.6516653295        1.3681247256
 C         -6.7060994484        2.5640705978        1.9540346744
 C         -5.7935399457        1.6240846308        1.5161392783
 C         -3.8535003932        0.1291743126       -0.0803305145
 C         -2.8606097782       -0.8284734630        0.1548566720
 C         -1.5321214275       -0.4931946188        0.0544555837
 C         -1.1329911556        0.8050619622       -0.2868184985
 C          0.2920219266        1.1011461856       -0.3691878647
 C          0.8084290934        2.3721881185       -0.7439318014
 N          2.0827448052        2.6337657224       -0.8058935215
 C          2.9386198997        1.6427278400       -0.4955748342
 N          4.2598493894        1.9167330200       -0.5504271398
 C          5.0403756428        0.9186988043       -0.2440584854
 C          4.5351854355       -0.3910386832        0.1290001126
 N          3.2658656193       -0.6726920910        0.1878095112
 C          2.4377904837        0.3546058137       -0.1266031693
 N          1.1255792568        0.1165923456       -0.0744877040
 C          5.6765518427       -1.2507659586        0.4053229365
 C          5.8439815554       -2.5562012424        0.7933937649
 C          7.1561271870       -3.0364130538        0.9634505773
 C          8.2684311366       -2.2550697810        0.7574594874
 C          8.1314437804       -0.9063322931        0.3575471097
 C          9.1524188821        0.0374766967        0.1025467300
 C          8.8348716128        1.3190640532       -0.2805425168
 C          7.5083045590        1.7624108223       -0.4392121418
 C          6.4931320406        0.8705848981       -0.1994859222
 C          6.8217124764       -0.4480671969        0.1942690259
 C         -2.1278931467        1.7573935507       -0.5233051531
 C         -3.4604262521        1.4270571244       -0.4215929345
 C         -6.6717158477       -2.0832565815        0.4194620121
 C         -7.1292461855       -3.3393658450        0.0712787363
 H         -6.9347841520       -4.9963675995       -1.2722433583
 H         -5.1305996661       -3.9341314077       -2.5820448850
 H         -4.3232807070       -1.6910148265       -1.9839044015
 H         -7.6425936444        0.1860462617       -0.9245156866
 H         -9.2655780478        1.8545286004       -0.1281642855
 H         -8.6698713821        3.3855223054        1.7149010041
 H         -6.4400066132        3.2267507657        2.7642276113
 H         -4.8216490034        1.5482603549        1.9810166738
 H         -3.1472578292       -1.8327787183        0.4295825907
 H         -0.7636731817       -1.2246824688        0.2469453680
 H          0.1579243559        3.1952220366       -1.0055326323
 H          4.9973492985       -3.2021570957        0.9655917263
 H          7.2875432258       -4.0645342828        1.2691792401
 H          9.2564169765       -2.6686594763        0.9005861742
 H         10.1865437166       -0.2565668864        0.2109259657
 H          9.6335440592        2.0220027321       -0.4697469475
 H          7.3022766385        2.7773812588       -0.7409267767
 H         -1.8700839732        2.7687489826       -0.7960390069
 H         -4.2157336570        2.1742066156       -0.6173490185
 H         -7.0976224558       -1.5625692440        1.2646162528
 H         -7.9178231936       -3.7974705132        0.6500017607
  60
        -98.14197846
 C         -7.4138609496       -3.0697076159        2.0015574031
 C         -6.1071824803       -3.3272723336        1.6199184828
 C         -5.3756318710       -2.3718588596        0.9418156952
 C         -5.9446724824       -1.1344285959        0.6430236893
 N         -5.2047979097       -0.1630982815       -0.0475188734
 C         -5.8346105901        0.6173037255       -1.0261287592
 C         -6.8091481221        0.0600686735       -1.8528448025
 C         -7.4397678205        0.8372976842       -2.8049744465
 C         -7.1057038072        2.1734279287       -2.9538128018
 C         -6.1348132683        2.7301465958       -2.1375062452
 C         -5.5043231493        1.9635631808       -1.1768053537
 C         -3.8528476438        0.0074027913        0.2322908729
 C         -3.3740208917       -0.1610462417        1.5350245089
 C         -2.0345839736       -0.0125040312        1.8162346695
 C         -1.1234799322        0.2998377440        0.8048971784
 C          0.3071049726        0.4167389157        1.0593971437
 C          0.8367308246        0.6785302693        2.3525207947
 N          2.1143617885        0.7144696859        2.6017817429
 C          2.9542385494        0.5012121747        1.5724359775
 N          4.2779013335        0.4824064640        1.8400660197
 C          5.0454960818        0.3041522639        0.8020561315
 C          4.5254565117        0.1468756325       -0.5450906518
 N          3.2531082630        0.1540123204       -0.8202002893
 C          2.4374817113        0.3188755507        0.2504515117
 N          1.1207210697        0.2776235754        0.0274477339
 C          5.6558213014       -0.0324765686       -1.4443048772
 C          5.8088123115       -0.2264097911       -2.7941035905
 C          7.1137757772       -0.3710185025       -3.3017499783
 C          8.2330712485       -0.3272002664       -2.5046612931
 C          8.1112269235       -0.1288846524       -1.1104890106
 C          9.1409026045       -0.0594620079       -0.1444951850
 C          8.8382473030        0.1380546695        1.1819783565
 C          7.5187611507        0.2798056783        1.6512429220
 C          6.4955738607        0.2166120918        0.7388030295
 C          6.8085933141        0.0142169798       -0.6259187420
 C         -1.6051016584        0.4661419007       -0.4972704162
 C         -2.9443364298        0.3331757755       -0.7800717179
 C         -7.2589387295       -0.8787671353        1.0304043966
 C         -7.9851222823       -1.8439827231        1.7012356439
 H         -7.9833397361       -3.8200154001        2.5285489813
 H         -5.6557666950       -4.2823852758        1.8443185128
 H         -4.3602657092       -2.5772418542        0.6359194812
 H         -7.0648593738       -0.9837718121       -1.7441656547
 H         -8.1920108511        0.3936234483       -3.4403444274
 H         -7.5986912954        2.7768209370       -3.7007410139
 H         -5.8723028541        3.7724997757       -2.2426723664
 H         -4.7563492151        2.4025623018       -0.5329570778
 H         -4.0672394421       -0.4087318287        2.3255272759
 H         -1.6945693860       -0.1641259863        2.8293458739
 H          0.1894512682        0.8900150862        3.1930987860
 H          4.9565540227       -0.2685339665       -3.4540793516
 H          7.2335178977       -0.5244748332       -4.3647150272
 H          9.2149225140       -0.4450200430       -2.9403174154
 H         10.1700657693       -0.1637766402       -0.4568852213
 H          9.6433624807        0.1871505618        1.9011382897
 H          7.3239110833        0.4325669845        2.7011585109
 H         -0.8971291538        0.6909609649       -1.2791372122
 H         -3.3011887406        0.4599188544       -1.7915280345
 H         -7.7027810239        0.0797066271        0.8040976993
 H         -9.0017607388       -1.6336393714        1.9990476785
  60
        -98.14179592
 C         -6.9882133039       -3.7648254374        1.2615761938
 C         -6.0323566411       -3.1422049486        2.0475535404
 C         -5.4396808508       -1.9667278551        1.6291569802
 C         -5.7934509042       -1.4000105561        0.4052166298
 N         -5.2010441317       -0.2032579804       -0.0182773216
 C         -5.9654920756        0.7384139766       -0.7223671960
 C         -5.4100050034        1.4354629793       -1.7947609107
 C         -6.1658900788        2.3598762785       -2.4889046148
 C         -7.4835921331        2.5972313052       -2.1332431745
 C         -8.0409739247        1.9033612451       -1.0717614764
 C         -7.2907112132        0.9825316937       -0.3659532010
 C         -3.8535297027        0.0439777141        0.2264785558
 C         -3.4128265623        1.3424672833        0.4982977386
 C         -2.0780409916        1.5998194259        0.7167081984
 C         -1.1353445295        0.5713714573        0.6585044685
 C          0.2912046284        0.8226211631        0.8229112326
 C          0.7933936313        1.9524919742        1.5244301235
 N          2.0632921874        2.2292743753        1.6054438076
 C          2.9217608965        1.3898070990        0.9981178239
 N          4.2335682525        1.7101370882        1.0254094281
 C          5.0215764574        0.8476856698        0.4477341684
 C          4.5354167515       -0.3741581105       -0.1693330004
 N          3.2747361258       -0.6959526675       -0.2101348242
 C          2.4368825253        0.2012350335        0.3654746592
 N          1.1268303103       -0.0517429302        0.2915707740
 C          5.6803598610       -1.0876641181       -0.7153071725
 C          5.8626833082       -2.2628988899       -1.3998406825
 C          7.1714142386       -2.6149646488       -1.7801369654
 C          8.2660860305       -1.8329458439       -1.4967021516
 C          8.1135731606       -0.6162772881       -0.7936761479
 C          9.1149502424        0.3095337890       -0.4216894382
 C          8.7836770468        1.4553273002        0.2620444270
 C          7.4612820436        1.7724040605        0.6255766385
 C          6.4651811721        0.8940686720        0.2795945210
 C          6.8078149798       -0.2852110696       -0.4228712559
 C         -1.5790780670       -0.7264938205        0.3885039847
 C         -2.9137530872       -0.9909487666        0.1877499745
 C         -6.7520221231       -2.0329467413       -0.3849454002
 C         -7.3447566687       -3.2038159194        0.0462668016
 H         -7.4524782606       -4.6806670596        1.5942426159
 H         -5.7528220160       -3.5692642808        2.9993522988
 H         -4.7034558549       -1.4760240166        2.2488388806
 H         -4.3863246031        1.2425161577       -2.0805859631
 H         -5.7249353377        2.8914497917       -3.3192019374
 H         -8.0721026642        3.3179678403       -2.6802033616
 H         -9.0663680503        2.0854443265       -0.7856723187
 H         -7.7241016256        0.4478292423        0.4665361750
 H         -4.1312924658        2.1482315967        0.5335857963
 H         -1.7653257288        2.6152948857        0.9069559071
 H          0.1309451413        2.6254870651        2.0523262056
 H          5.0299437533       -2.9036992092       -1.6439963252
 H          7.3142856133       -3.5399094202       -2.3203423827
 H          9.2517755197       -2.1441060385       -1.8117146781
 H         10.1448005491        0.1107656567       -0.6815079124
 H          9.5671847665        2.1483497140        0.5333634963
 H          7.2435526480        2.6830967075        1.1611718586
 H         -0.8465098243       -1.5157611766        0.3296139955
 H         -3.2429093445       -1.9976020730       -0.0240011053
 H         -7.0246774707       -1.6022275937       -1.3372531285
 H         -8.0848002509       -3.6855489360       -0.5756348101
  60
        -98.14153131
 C         -7.4200765298       -3.1837444378        1.8322989647
 C         -6.1003446720       -3.4059080686        1.4743957427
 C         -5.3668902728       -2.4125573561        0.8555790136
 C         -5.9473340094       -1.1719865191        0.5930038001
 N         -5.2056054876       -0.1659439213       -0.0404595254
 C         -5.8175258637        0.6655358114       -0.9871297106
 C         -6.7906187599        0.1633635366       -1.8501202733
 C         -7.3971807001        0.9944963520       -2.7718929726
 C         -7.0407107629        2.3305681048       -2.8545613984
 C         -6.0702975681        2.8326027960       -2.0030056971
 C         -5.4636875112        2.0117862005       -1.0723892160
 C         -3.8523154938       -0.0125809862        0.2520131028
 C         -3.3824235041       -0.1916907624        1.5559172053
 C         -2.0433870992       -0.0448837757        1.8453562831
 C         -1.1291477925        0.2637158986        0.8374499814
 C          0.3027000070        0.3825254530        1.0908971451
 C          0.8322373316        0.7896063683        2.3444201782
 N          2.1098004459        0.9218983868        2.5644809787
 C          2.9479558383        0.6301565825        1.5526467037
 N          4.2736788754        0.7611692193        1.7797021406
 C          5.0378086478        0.4517713982        0.7701647745
 C          4.5121370482       -0.0168392953       -0.5006071334
 N          3.2389503468       -0.1278889445       -0.7447688712
 C          2.4282440109        0.2072747551        0.2884122675
 N          1.1116632376        0.1133432329        0.0825827900
 C          5.6379313398       -0.3117777442       -1.3731137033
 C          5.7819157190       -0.7912378008       -2.6506995655
 C          7.0851793454       -0.9489943620       -3.1579767080
 C          8.2102138218       -0.6391132973       -2.4308986475
 C          8.0967301815       -0.1421550904       -1.1124952503
 C          9.1332791770        0.2277203928       -0.2254930046
 C          8.8375874510        0.6926057601        1.0341281756
 C          7.5195180231        0.8221820634        1.5112486426
 C          6.4892504208        0.4720097202        0.6749207039
 C          6.7956705637        0.0009352928       -0.6238310778
 C         -1.6004399871        0.4322980799       -0.4672624309
 C         -2.9392889199        0.3114888838       -0.7558593340
 C         -7.2741560707       -0.9511738996        0.9590610889
 C         -8.0017747538       -1.9541840845        1.5700485094
 H         -7.9914992631       -3.9640903864        2.3113810175
 H         -5.6404879715       -4.3635924970        1.6688967486
 H         -4.3419548642       -2.5915276919        0.5651838269
 H         -7.0626324945       -0.8805031900       -1.7949408387
 H         -8.1472694481        0.5929991766       -3.4372273921
 H         -7.5146083865        2.9755892679       -3.5787098264
 H         -5.7892780775        3.8740476474       -2.0565123470
 H         -4.7176553173        2.4087042391       -0.3994520088
 H         -4.0813469826       -0.4450259516        2.3396085654
 H         -1.7036893256       -0.1983142327        2.8587288335
 H          0.1819295011        1.0457061464        3.1705089973
 H          4.9237798109       -1.0449352572       -3.2531177375
 H          7.1990165634       -1.3302613082       -4.1626656811
 H          9.1906208899       -0.7747385765       -2.8645382574
 H         10.1617077090        0.1443478829       -0.5463657888
 H          9.6477909759        0.9715690993        1.6925074127
 H          7.3317062834        1.1881449564        2.5084935092
 H         -0.8872097913        0.6536286326       -1.2453333219
 H         -3.2930866051        0.4480261755       -1.7670958639
 H         -7.7267987146        0.0096604617        0.7623858297
 H         -9.0286115192       -1.7710946028        1.8502673198
  60
        -98.14116790
 C         -7.5897403121       -3.0811044295        1.8388912287
 C         -6.3163437365       -3.4025907840        1.3978208130
 C         -5.5382780943       -2.4570258802        0.7589356324
 C         -6.0259519444       -1.1657949218        0.5586397455
 N         -5.2320890902       -0.2094790351       -0.0878237453
 C         -5.8176584720        0.7320359189       -0.9431119083
 C         -6.8838285951        0.3749148806       -1.7675796031
 C         -7.4678817371        1.3153270895       -2.5942132912
 C         -6.9965682519        2.6177129611       -2.6202691273
 C         -5.9327743594        2.9752987314       -1.8082049227
 C         -5.3476722869        2.0449337696       -0.9717373000
 C         -3.8631462430       -0.1563928958        0.1706502490
 C         -3.3748624840       -0.3905218472        1.4585929141
 C         -2.0269976832       -0.2919657812        1.7236036468
 C         -1.1223757261        0.0174044948        0.7068984994
 C          0.3059233765        0.1647773470        0.9687618995
 C          0.7849425891        0.6482380699        2.2161589620
 N          2.0471652382        0.8599710051        2.4561787343
 C          2.9202285305        0.5692700286        1.4743436129
 N          4.2283691365        0.8001520199        1.7188618247
 C          5.0337538241        0.4848571861        0.7445093926
 C          4.5705214127       -0.0972156164       -0.5032925246
 N          3.3118061078       -0.3011873940       -0.7660298477
 C          2.4554006326        0.0487718690        0.2249733513
 N          1.1482435453       -0.1167323850       -0.0074181798
 C          5.7370057977       -0.3734257553       -1.3290323437
 C          5.9493716224       -0.9268058596       -2.5668711482
 C          7.2741014969       -1.0277905903       -3.0322591506
 C          8.3557528993       -0.5915559994       -2.3041842849
 C          8.1726720339       -0.0156523798       -1.0263622590
 C          9.1573358391        0.4851160276       -0.1442347815
 C          8.7977619382        1.0109544677        1.0742368903
 C          7.4618569459        1.0773824961        1.5126361844
 C          6.4815311902        0.6005794999        0.6788891773
 C          6.8519079440        0.0677291351       -0.5781636159
 C         -1.6079672936        0.2054043698       -0.5891641587
 C         -2.9567918791        0.1352646955       -0.8527459108
 C         -7.3064972099       -0.8457211225        1.0070867747
 C         -8.0795940659       -1.8009023106        1.6386102463
 H         -8.1962233168       -3.8233696701        2.3351105572
 H         -5.9283018035       -4.3997614421        1.5447035029
 H         -4.5489852904       -2.7107897075        0.4069486276
 H         -7.2483377296       -0.6417829782       -1.7549215720
 H         -8.2936522487        1.0268107648       -3.2277500842
 H         -7.4553110400        3.3491744419       -3.2680062453
 H         -5.5614621130        3.9894744513       -1.8173076726
 H         -4.5274392449        2.3300883154       -0.3292300731
 H         -4.0669815539       -0.6340347421        2.2512859744
 H         -1.6728926565       -0.4757482919        2.7269037509
 H          0.1020964034        0.9033945815        3.0156648720
 H          5.1282587273       -1.2791006251       -3.1713497437
 H          7.4407458951       -1.4663348405       -4.0057987071
 H          9.3546100607       -0.6874150276       -2.7051513164
 H         10.1973043257        0.4523632603       -0.4357725137
 H          9.5690637101        1.3894169120        1.7297117456
 H          7.2216370014        1.4935631300        2.4785169245
 H         -0.9023435354        0.4137789280       -1.3779605479
 H         -3.3262894252        0.2992736566       -1.8543731825
 H         -7.6869325053        0.1546295339        0.8609062234
 H         -9.0696619769       -1.5407709404        1.9831142590
