69
 energy: -112.093479088930 gnorm: 0.000031067942 xtb: 6.7.1 (edcfbbe)
N          -10.46039892988545       -3.13434983322313        0.00375685416381
C           -9.45050849884108       -2.59148724495520        0.00308369355691
C           -8.20537464727231       -1.92253892467405        0.00229746889256
C           -8.16294319495585       -0.52762520932192       -0.00002211625905
C           -6.94401260238759        0.11973515101024       -0.00080845357271
C           -5.75647153015084       -0.60735212173030        0.00075990555655
C           -4.45029769388788        0.09024429911921        0.00005598802509
C           -3.83695965258290        0.41425155901170        1.21615336084574
C           -4.43756669788917        0.10136269201980        2.46401010512200
C           -3.82783887614825        0.42235926716762        3.63726667979118
C           -2.57835611724756        1.07570835214317        3.63609268437138
C           -1.96906767232606        1.39293772304756        2.46158474498479
C           -2.57076450501149        1.07744260183803        1.21498828737218
C           -1.95567195055029        1.39760170717562       -0.00120481770522
C           -0.63824322432237        2.07595869519251       -0.00181371550326
C           -0.55874319695004        3.46527593438635       -0.00286865876477
C            0.67531766775429        4.09564157646180       -0.00325710032696
C            1.83884521586902        3.35228930447184       -0.00262599267046
C            1.76954816980129        1.95856003356545       -0.00162800611165
C            2.98899143555327        1.18319217189614       -0.00100474094779
N            4.19909926197266        1.66342954482433       -0.00065283965573
C            5.01689329138503        0.57063611620493       -0.00011944283868
C            6.43728377239181        0.48212595587623        0.00048142305450
C            7.24039254801427        1.62649648893347        0.00068051168390
C            8.60851348316139        1.51271203592888        0.00131059685765
C            9.19000532150278        0.24651692048430        0.00174798044420
C            8.40985293004844       -0.88624130535736        0.00154686498402
C            7.00833179390516       -0.81420305188986        0.00090603524589
C            6.16580388989599       -1.99842003182235        0.00068797437782
C            6.68784793383619       -3.30015485781412        0.00096965972531
C            5.87137270102652       -4.40739049362765        0.00075089935585
C            4.48456591560638       -4.27129412619101        0.00024430589595
C            3.93019428786917       -3.01617503957231       -0.00004881602790
C            4.75150148155029       -1.88173491484849        0.00015614593324
C            4.22670051671027       -0.56757307535433       -0.00020245885412
O            2.93234248356181       -0.17507469739131       -0.00074749275464
C            0.52830790795140        1.32584953102704       -0.00121674010706
C           -2.57189342700573        1.07725230033322       -1.21677166409756
C           -1.97126957709569        1.39239800421001       -2.46397372567901
C           -2.58157500290362        1.07484657747278       -3.63786648504537
C           -3.83103134866312        0.42144261542349       -3.63777984243083
C           -4.43973359604083        0.10074437708462       -2.46390935384734
C           -3.83809747259320        0.41407032861702       -1.21665867976004
C           -5.80651757386984       -1.99908452143547        0.00307579394327
C           -7.01919140489875       -2.65777854472786        0.00382551616630
H           -9.08514344656513        0.03471987351500       -0.00117130645432
H           -6.90327085577733        1.19915216378938       -0.00261443738471
H           -5.39502581205427       -0.39934146189033        2.46453525021656
H           -4.29591274377914        0.17922456385125        4.57973341362866
H           -2.11043548076985        1.32151815746457        4.57788564423837
H           -1.01189114951541        1.89354835411055        2.45765565808902
H           -1.46931671882128        4.04664813707380       -0.00334307794925
H            0.72521766395500        5.17435389988466       -0.00404666664061
H            2.80909255754722        3.82186188800646       -0.00289626925254
H            6.75123531903114        2.58820838406056        0.00034042895779
H            9.23266463529222        2.39381651935232        0.00147617500608
H           10.26624606399466        0.15249805564508        0.00225606846380
H            8.90278629383309       -1.84529630104867        0.00191107662302
H            7.75496199654991       -3.45353868002885        0.00135234601635
H            6.31045097473703       -5.39425237353907        0.00096994412536
H            3.85461764343258       -5.14818650662785        0.00007442217422
H            2.85919164311824       -2.87772585747793       -0.00045707947136
H            0.47469319669607        0.24730284886129       -0.00040242727675
H           -1.01405952735205        1.89295286560051       -2.46100168233486
H           -2.11446101248623        1.32037557804162       -4.58013316736508
H           -4.29987676617167        0.17797029294558       -4.57977601281697
H           -5.39711467294232       -0.40011018855892       -2.46346380194102
H           -4.88410090837564       -2.56114217455809        0.00426089569976
H           -7.05973250947864       -3.73716390946628        0.00560026826351
