69
 energy: -112.031179311942 gnorm: 0.000041081040 xtb: 6.7.1 (edcfbbe)
N          -10.47613938973426       -2.84261127482790        0.61458395682434
C           -9.44917008227652       -2.34376391589131        0.49595426137215
C           -8.18782147064968       -1.73141811830135        0.35047849712916
C           -7.70862055166174       -1.40054059290579       -0.92112455049541
C           -6.47278345868676       -0.81151442070714       -1.05881899052893
C           -5.68285107256436       -0.51678508265846        0.06161796135752
C           -4.37981468406001        0.11448491163667       -0.08895567413332
C           -4.08383306586180        1.32031639967999        0.62575069889290
C           -5.04428558066766        1.97114507655304        1.40222879123789
C           -4.72818459300529        3.09993964432457        2.15709294501520
C           -3.44167844321062        3.59127551087809        2.14795040914129
C           -2.47988186356739        2.99920057755754        1.33182424300737
C           -2.78604925739638        1.90282953522316        0.52182927988875
C           -1.83069512145691        1.35140967060704       -0.38690914808718
C           -0.52462854836895        1.99170137871350       -0.54546636206665
C           -0.42706820713257        3.33576692139891       -0.91940861688780
C            0.80866669280864        3.93807925362960       -1.07577217591822
C            1.97044694442268        3.22262234849947       -0.85870654075021
C            1.89114652274097        1.87990154888684       -0.48299567449900
C            3.10652164192260        1.13129564487265       -0.25689312883587
N            4.31784162574343        1.60066763935323       -0.34126760227696
C            5.13142948029753        0.54298035742597       -0.05434837143401
C            6.55096952162296        0.46201016118074        0.00605031905939
C            7.35747576298037        1.57554800109035       -0.24720068381557
C            8.72466958371695        1.47007920029036       -0.18100950165051
C            9.30169323627520        0.24338361226990        0.14092482448285
C            8.51813380433080       -0.85883820640834        0.39183009971312
C            7.11741675406981       -0.79407005180796        0.33451657693029
C            6.27118206089926       -1.94649105823449        0.59541762367271
C            6.78878661777632       -3.20861681829253        0.92120513554432
C            5.96899909381007       -4.28648999557031        1.16360201893047
C            4.58315757899765       -4.15916807303149        1.09271414387498
C            4.03300106675764       -2.94236410412181        0.77739139585670
C            4.85772920810664       -1.83800189316245        0.52888855587150
C            4.33752958984182       -0.56388918707471        0.19961489595097
O            3.04479577945460       -0.18689397692250        0.07023969452938
C            0.64923020491934        1.27198072296592       -0.33119685980088
C           -2.14415990586000        0.17991772776579       -1.14347108090355
C           -1.25771273406861       -0.34388972788229       -2.08788087092874
C           -1.52729594197540       -1.53701131685028       -2.75527092639805
C           -2.68614352348205       -2.22850168664956       -2.48051981788728
C           -3.61419287316839       -1.69740971049691       -1.58586136361019
C           -3.39720742634447       -0.47364159452563       -0.94994710984381
C           -6.18042857368514       -0.84618668857828        1.33052278672702
C           -7.40746083414313       -1.45136008146201        1.47682560578712
H           -8.31753484316087       -1.60748614025232       -1.78913689881484
H           -6.11538515277851       -0.53593774923365       -2.04033059830179
H           -6.05828408376338        1.60214630550679        1.41749101368888
H           -5.49405707443067        3.57259908156970        2.75314462843828
H           -3.17352385795892        4.44223163173340        2.75570876399850
H           -1.47645586093362        3.39632560630378        1.33037436906769
H           -1.33120499698359        3.89471968722327       -1.11229913046465
H            0.86301665559669        4.97475308832131       -1.37351690687026
H            2.94289630489360        3.67272318540198       -0.97306813498341
H            6.87172359454011        2.50718909875649       -0.49265977913019
H            9.35146593714060        2.32746850034884       -0.37569546789283
H           10.37717337094250        0.15613979304503        0.19438645932635
H            9.00771725448022       -1.78768242495937        0.63740689688375
H            7.85500170121788       -3.35389262336409        0.98705673076128
H            6.40471839897996       -5.24316978063324        1.41175702969561
H            3.95059211939172       -5.01278649879379        1.28486385924990
H            2.96280861695868       -2.81182167273835        0.71453314409585
H            0.59558286577261        0.23995666018717       -0.01761519220146
H           -0.34439063054191        0.18595087216064       -2.31047926077242
H           -0.81621625872749       -1.91806669833638       -3.47264982380375
H           -2.89066215578901       -3.17356896362324       -2.96045737773648
H           -4.51514076455727       -2.25429883437740       -1.37902672346590
H           -5.56975286281026       -0.65281017075122        2.20040830240830
H           -7.77438593969784       -1.71774929436587        2.45736788760520
