85
 energy: -129.504006321042 gnorm: 0.000095592639 xtb: 6.7.1 (edcfbbe)
C           -2.99640999737557       -4.13964494236968       -3.07804647621781
C           -2.62331936033197       -2.67454276422602       -2.89213205912218
C           -3.85686342250445       -1.78027605971952       -2.79808565485927
C           -3.47335370557727       -0.31358807851335       -2.62493829357173
C           -4.69816776188509        0.58921614130818       -2.50277544170799
C           -4.34217558703041        2.07964069049262       -2.38840540367816
N           -3.64458368352513        2.40766035246625       -1.16749620437283
C           -2.24850396015008        2.39034333303977       -1.09966365603695
C           -1.42311861782904        2.21649949794689       -2.20929350503696
C            0.05873442831526        2.19302864048371       -2.11220825050793
C            0.54993717776863        1.83905777662108       -0.73333703094300
C            1.73380082353413        1.10459547182152       -0.61175656723813
C            2.05534537339423        0.31549850536861        0.61535016762767
C            1.12834795976615       -0.87562854541819        0.79764679669210
C           -0.24448107399287       -0.90877394173747        0.81630898608679
C           -0.91337148952564       -2.11738680161152        1.02716974813327
C           -2.38308812779888       -2.12761287120735        1.03238908599197
C           -3.09774742393517       -3.23629035800312        0.57803827403398
C           -4.47894785014974       -3.22693275953562        0.53599369427640
C           -5.15275203186034       -2.09219312636454        0.94978993384098
F           -6.50303590402004       -2.07121370233642        0.89054044443355
C           -4.48039093152162       -0.97925252779411        1.41958821260444
C           -3.10022583660203       -1.00860301645259        1.46250999761863
C           -0.16197910650349       -3.28064522963043        1.21153585277556
C            1.22020059516172       -3.26007776003022        1.16190452513400
C            1.87351305574580       -2.05527696325120        0.94612666915423
C            3.28162317936036       -1.73101567970657        0.82023071874296
C            4.41165977958132       -2.53261277538778        0.85819859460042
C            5.65015006273252       -1.94857956568085        0.66597883485142
C            5.78186207678800       -0.57720058821147        0.44258810963896
C            7.11029148419753        0.01562023480551        0.23238400714858
C            7.44286355169474        1.23745782474807        0.81528982902566
C            8.69027589989038        1.80010397198156        0.62425857923180
C            9.60834798642264        1.13122664524390       -0.16439282588586
F           10.82916220837775        1.67629040014426       -0.35825840525952
C            9.31027263547721       -0.08039116159061       -0.76054332269422
C            8.06048954250344       -0.63260604263373       -0.55527085412634
C            4.64027235563228        0.22833828902831        0.41954927858253
C            3.40516325207787       -0.34822923336529        0.60484429592857
C           -0.25134903900535        2.20028766404377        0.32394408531203
C           -1.63079761819425        2.53812060100638        0.14226931245132
O           -2.31946865284662        2.79485210193475        1.29812437629364
C           -3.68466121974507        2.71787517123768        1.23566486800384
C           -4.36411085113078        2.84832230638211        2.43288872708154
C           -5.74930055427444        2.76249106147065        2.46600585361286
C           -6.43375129673635        2.53279129840375        1.29275437140785
C           -5.75175659357200        2.39678849223019        0.08839579276384
C           -4.36581786402280        2.49527101484280        0.02606619489936
H           -3.55553056701692       -4.27724555257236       -4.00106417798495
H           -2.10389103489478       -4.75959539142509       -3.12185930368567
H           -3.61457287608597       -4.48153172563676       -2.25147960086333
H           -2.02910207172677       -2.56006574346117       -1.98248302104115
H           -2.00514931059711       -2.34939797088588       -3.73232421235092
H           -4.45752022505072       -1.89451009549047       -3.70387595346403
H           -4.46833291156347       -2.09772678099848       -1.95112610598087
H           -2.87503100495280       -0.00442067086946       -3.48472582147672
H           -2.85163952169544       -0.21335335355075       -1.73241508027161
H           -5.33328540081515        0.45895527069508       -3.38200747074158
H           -5.27316714556683        0.28576426252601       -1.62568749253233
H           -5.25384785030941        2.68196570908240       -2.43418814637486
H           -3.72753656930080        2.37882263688674       -3.23659980516648
H           -1.82576734246866        2.09013306734871       -3.19722185002482
H            0.46405125684669        1.49697303112890       -2.85425709901984
H            0.46968820547880        3.18437489870588       -2.37138913190115
H            2.33987541479518        0.92400908423838       -1.48541653763353
H            1.96805028955851        0.96142833503322        1.49970894040601
H           -0.80949940372533       -0.00868124928866        0.64237761826183
H           -2.56831378443739       -4.10983450598308        0.23008328054220
H           -5.03596806726723       -4.08081461621090        0.18211866806189
H           -5.03246845558675       -0.11120233519330        1.74519562435660
H           -2.57705998202380       -0.15122377120254        1.85661707340522
H           -0.66721876084269       -4.21401100159702        1.41089842879958
H            1.78229382045311       -4.17272448347940        1.29451396514836
H            4.32937556859738       -3.59508519977567        1.03259263526806
H            6.53913896855026       -2.56073817752876        0.70830404014615
H            6.72337716045613        1.74217295382738        1.44228546251860
H            8.95796313254854        2.74159085737530        1.07757219394452
H           10.04867147124394       -0.57244353460985       -1.37390679489411
H            7.81010505535233       -1.56970629515811       -1.02936294385743
H            4.72742770692904        1.28860021505089        0.23133181148353
H            0.08868876007309        2.13816005074059        1.34535193398914
H           -3.78900322262232        3.01601812965131        3.32965780267885
H           -6.27374970787144        2.86818357705317        3.40241272466334
H           -7.50984005135379        2.45099175218985        1.29489884301868
H           -6.33348123846685        2.21224376023613       -0.79831689402992
