  85
       -129.57623040
 C         -2.8139950989       -4.1465899445       -3.0188035842
 C         -2.4604906420       -2.6805912686       -2.8033593652
 C         -3.7076369794       -1.8034385684       -2.7389716500
 C         -3.3599925703       -0.3324502273       -2.5307753758
 C         -4.6135799752        0.5354874221       -2.4483179051
 C         -4.2972075792        2.0334489746       -2.3499109141
 N         -3.5961657914        2.3778235064       -1.1328150224
 C         -2.2044594891        2.4521051901       -1.1143282986
 C         -1.4004976791        2.4460539592       -2.1914293017
 C          0.0963137846        2.4894214552       -2.0769263903
 C          0.5591053567        1.8623863536       -0.7938714967
 C          1.5822745232        1.0033888854       -0.7309548019
 C          1.9667946903        0.2550128730        0.5125617071
 C          1.0588536532       -0.9319217536        0.7477486037
 C         -0.3135287494       -0.9625325429        0.7793295671
 C         -0.9768552628       -2.1647703317        1.0362447705
 C         -2.4465841313       -2.1777178333        1.0543739461
 C         -3.1634373516       -3.2966055532        0.6306379091
 C         -4.5449284341       -3.2874301989        0.5952326538
 C         -5.2158270084       -2.1432628999        0.9870875705
 F         -6.5663573128       -2.1225760613        0.9350321939
 C         -4.5406541658       -1.0202417655        1.4284628727
 C         -3.1602221279       -1.0488865986        1.4632177523
 C         -0.2208559969       -3.3200049282        1.2493149237
 C          1.1614620437       -3.3009930748        1.1861675264
 C          1.8096718281       -2.1027721516        0.9243369889
 C          3.2141122217       -1.7720540672        0.7647866194
 C          4.3524512231       -2.5601297509        0.8234097737
 C          5.5847292673       -1.9696126544        0.6101339252
 C          5.7017807487       -0.6049700708        0.3424674772
 C          7.0254387318       -0.0008975051        0.1325969198
 C          7.3313465367        1.2415082636        0.6862598195
 C          8.5752076846        1.8147510641        0.5040514656
 C          9.5174418662        1.1351299167       -0.2459133766
 F         10.7354826588        1.6897572948       -0.4302787392
 C          9.2463569452       -0.0968399219       -0.8124662436
 C          7.9993855200       -0.6590700432       -0.6166493605
 C          4.5510533683        0.1859303393        0.2885668093
 C          3.3224016474       -0.3966283731        0.4964701386
 C         -0.2529094238        2.2301469710        0.3463810965
 C         -1.5570394080        2.5271846137        0.1988104787
 O         -2.2689879219        2.8485156069        1.3126017758
 C         -3.6327700006        2.7629086152        1.2514156302
 C         -4.3128027027        2.9361014040        2.4457614864
 C         -5.6902554944        2.8261954873        2.4866875701
 C         -6.3747482836        2.5302563926        1.3215696696
 C         -5.6990833533        2.3606177547        0.1263578763
 C         -4.3095893865        2.4844486125        0.0529122174
 H         -3.3380081931       -4.2777944113       -3.9632192291
 H         -1.9160283676       -4.7596067964       -3.0364685601
 H         -3.4598817947       -4.5020740235       -2.2194793485
 H         -1.8965427247       -2.5716622523       -1.8741927310
 H         -1.8198228427       -2.3385096444       -3.6194745666
 H         -4.2745935429       -1.9135268409       -3.6668844104
 H         -4.3438980343       -2.1429328272       -1.9188074578
 H         -2.7325716888        0.0071956580       -3.3578257996
 H         -2.7790756561       -0.2309022672       -1.6114227848
 H         -5.2240476170        0.3766045782       -3.3401631671
 H         -5.1999761459        0.2257265638       -1.5810718860
 H         -5.2207125138        2.6169041857       -2.3976150172
 H         -3.6904397461        2.3333047818       -3.2026885084
 H         -1.7805333685        2.4338091268       -3.1982897067
 H          0.5481533790        1.9879784205       -2.9345472646
 H          0.4262896053        3.5384251465       -2.1031984061
 H          2.1277812583        0.7436696977       -1.6268423321
 H          1.9011498693        0.9279284765        1.3766106074
 H         -0.8740512062       -0.0648724675        0.5801272487
 H         -2.6351643219       -4.1776582477        0.3003240933
 H         -5.1039559301       -4.1483281276        0.2622403713
 H         -5.0905217253       -0.1447051643        1.7376271779
 H         -2.6331200077       -0.1827514637        1.8327334987
 H         -0.7230594483       -4.2475984635        1.4811308978
 H          1.7246614342       -4.2094084876        1.3412660311
 H          4.2823278707       -3.6165113717        1.0362329658
 H          6.4803333358       -2.5701024489        0.6747945330
 H          6.5938472067        1.7540524399        1.2853605890
 H          8.8219495299        2.7720624697        0.9356978670
 H         10.0036101520       -0.5971510259       -1.3954363193
 H          7.7711378451       -1.6133248367       -1.0670415028
 H          4.6267188974        1.2400576716        0.0638476244
 H          0.1647747697        2.2134035191        1.3412443568
 H         -3.7360430016        3.1520597291        3.3311218145
 H         -6.2175455184        2.9594344805        3.4179702446
 H         -7.4489059045        2.4234186055        1.3356399254
 H         -6.2775999158        2.1264303247       -0.7508491723
