85
 energy: -129.504745190642 gnorm: 0.000083972908 xtb: 6.7.1 (edcfbbe)
C           -3.14377436509272       -1.87918090819433       -2.23510087635632
C           -3.97253369135608       -1.03159616804338       -1.27903470138865
C           -4.36765482751021        0.30301774285023       -1.90661521694759
C           -5.10771829356362        1.19644965429292       -0.91413196552178
C           -5.52063590473677        2.55369662212594       -1.48665960668760
C           -4.33146573972617        3.42759038432409       -1.91892140358149
N           -3.33801334424684        3.56583004062562       -0.87523241088667
C           -2.18859779263433        2.76873964657542       -0.88856154706496
C           -1.53338375192142        2.44311906782691       -2.07776701323317
C           -0.31054403066460        1.60483978774660       -2.12738882696686
C            0.12033846883794        1.03361646754104       -0.80422906303213
C            1.19404298051501        0.13441648850171       -0.84341847474769
C            1.72129872087464       -0.62258345427225        0.32620916225151
C            1.10804122651635       -2.00767025766436        0.37396112370710
C           -0.22209682960943       -2.34957063862869        0.43700079438445
C           -0.57759126586860       -3.70059304758159        0.44874361282798
C           -1.99437964795909       -4.08566842652625        0.50657864082225
C           -2.47366119059666       -5.15133039493048       -0.25489123841212
C           -3.81011033201517       -5.50116648248826       -0.22704268513993
C           -4.67087969489850       -4.77626661534346        0.57653291307943
F           -5.97977575265825       -5.10995960281109        0.60596110079571
C           -4.22821585246661       -3.71916683679822        1.35014386093186
C           -2.88986323156856       -3.37945211863839        1.30874979088510
C            0.42228504905443       -4.67397911439455        0.39425217017488
C            1.76007748301715       -4.33209703782810        0.32163718020852
C            2.10784826703400       -2.99012689840359        0.30426532548311
C            3.39729993979045       -2.33148269064972        0.21653555413109
C            4.68374502443492       -2.84090533759539        0.13398415850365
C            5.74610412217539       -1.95900339439152        0.05589687444741
C            5.54781461494987       -0.57745343145378        0.05230519102295
C            6.69405497940055        0.33830825277694       -0.03556050319123
C            6.62922585248471        1.48000278571529       -0.83298853406081
C            7.70160741942634        2.34653711647249       -0.92260731922771
C            8.84637372047337        2.06550932030424       -0.19958177527849
F            9.89822237579126        2.90934186697404       -0.28001969374566
C            8.94319225476453        0.94415433262620        0.60382122681754
C            7.86409150832027        0.08444507714368        0.67850249295621
C            4.24852048813992       -0.06958222662676        0.13370789575568
C            3.18978803879945       -0.94295376960100        0.22037914061774
C           -0.53168598666118        1.42656122810519        0.33741619206949
C           -1.65182209712029        2.31648656851579        0.30894588035769
O           -2.15968731984547        2.66767613866039        1.53383402474120
C           -3.12928228391076        3.63398959212153        1.54299676894803
C           -3.50480883555763        4.14068446749247        2.77478475482257
C           -4.48814833646346        5.11579370079853        2.85808031326078
C           -5.07983561737242        5.58444056660980        1.70383610590862
C           -4.70516208360523        5.07710406759544        0.46643195908106
C           -3.73395556245988        4.09023912848732        0.36130538144865
H           -3.69417782202885       -2.06441335725669       -3.15505425390531
H           -2.21534298520482       -1.36982967078004       -2.48537922844646
H           -2.89682267724536       -2.83637398758180       -1.78299267802746
H           -4.86953118054864       -1.58205655980129       -0.98675483818049
H           -3.39285861940335       -0.84184067701028       -0.37263265807891
H           -3.45794132473011        0.80090419945775       -2.24761115829276
H           -5.00167589096528        0.12325141149023       -2.77831174401584
H           -4.47937990561931        1.34996731912017       -0.03396191668920
H           -6.00883910189767        0.67915286126667       -0.57584135609547
H           -6.16434282161882        2.40645982616226       -2.35620563910177
H           -6.09736932029244        3.08623949488939       -0.72729049150400
H           -4.69359926697321        4.41648525334067       -2.21582497313262
H           -3.85598693470703        2.97971471554992       -2.78814006363288
H           -1.86769986926525        2.85111946513932       -3.01750631893181
H           -0.45348526268863        0.77968952121958       -2.84325080887982
H            0.52414605309013        2.19386885373578       -2.54294267860591
H            1.62416340407272       -0.11716350478971       -1.80124683954683
H            1.51387740528022       -0.08201463359696        1.25446474082864
H           -0.98336569152629       -1.58409371328249        0.44984410670831
H           -1.79676721779635       -5.69603483094676       -0.89587325312520
H           -4.18957068552042       -6.31838676301818       -0.82004101269913
H           -4.92602031276305       -3.17886891568695        1.97023289940872
H           -2.53033211618252       -2.56624385810983        1.92058575069374
H            0.14223357569556       -5.71668912747664        0.42772391822488
H            2.51886471126179       -5.09923947997304        0.27885261276192
H            4.85660404353533       -3.90678903115795        0.12813805320235
H            6.75167024981307       -2.34454900556124       -0.02796596759869
H            5.73571825776595        1.68035978350386       -1.40490030377628
H            7.66183926260831        3.22849805168481       -1.54241144832145
H            9.84949217985121        0.75854019159007        1.15851848716417
H            7.92151144289984       -0.78481002551412        1.31616641811771
H            4.08144460766235        0.99752054404077        0.15264685694930
H           -0.24815418660549        1.06213966825204        1.31119381606740
H           -3.02509088720966        3.74919706265272        3.65779633200697
H           -4.78173300493007        5.50003505986822        3.82230081014956
H           -5.84249494948910        6.34663020328025        1.75196030560095
H           -5.17923304601996        5.46240589115990       -0.42168963643454
