46
 energy: -74.530009923503 gnorm: 0.000107430376 xtb: 6.7.1 (edcfbbe)
C           -4.95554236206681       -2.68897375146075       -0.12728449977462
C           -3.67575775590171       -3.21683792269201        0.51098833276250
C           -2.59130570821697       -2.15018054435912        0.65536112879354
C           -2.03726156304357       -1.68336059434882       -0.69509512753148
N           -0.97198251913899       -0.73088839246254       -0.52206225814854
C            0.35296858964899       -1.03856808783595       -0.35257667230877
C            0.99201014937361       -2.27407675823413       -0.36342147634635
C            2.35485071866412       -2.30553014033477       -0.17832849960864
C            3.11120916071399       -1.13240793032694        0.02114989805541
C            4.53437673333489       -1.13691921272091        0.21545377139234
C            5.39716147641981       -2.18630849498875        0.25058173756320
C            6.77787004181473       -1.94474139612270        0.45674095786172
N            7.89409203492040       -1.74598336966974        0.62364718309630
C            5.10077677249374       -3.55835484869049        0.10378304312085
N            4.93770863109356       -4.68941700400760       -0.00486204196480
C            2.45972761996105        0.10769523040141        0.03453499690246
C            1.09308294296002        0.15383283864048       -0.14919142581442
C            0.13705748186987        1.22816095756704       -0.18362882686320
C            0.25331896972753        2.59557647819844       -0.04393079633071
C           -0.89772611835036        3.38677302777096       -0.12229474222602
C           -0.88258580770672        4.81608383413680        0.00880792740411
C            0.17262645187387        5.64810193360120        0.21664576417745
C           -0.05339205760850        7.04270730094624        0.31371804750686
N           -0.24785598041032        8.16960259282036        0.39037476045528
C            1.53204545317418        5.29712413574321        0.35662325446390
N            2.65281847491779        5.08112453477986        0.47902241049281
C           -2.14677168349643        2.76426327944100       -0.33939050118202
C           -2.27822428939866        1.40305841884013       -0.48054531864545
C           -1.12738961249568        0.62393407706835       -0.40613200048597
H           -4.79251202349271       -2.39923546414927       -1.16234587430030
H           -5.72410233401393       -3.45749987344476       -0.11304631824347
H           -5.32739399009180       -1.82636360201148        0.42150556985841
H           -3.28901332604362       -4.04909679981948       -0.08107706886551
H           -3.91086790750584       -3.60131653895427        1.50522859094786
H           -2.99357841696664       -1.28853940697320        1.19321850478332
H           -1.76552898640173       -2.55401478115704        1.24602114167284
H           -2.82348699431501       -1.21240931172437       -1.28829213191652
H           -1.65237122447747       -2.53923465036258       -1.25569360229445
H            0.44454463361201       -3.19215084466504       -0.50877582779841
H            2.85561254804371       -3.25943776396389       -0.18519298137845
H            4.98070735881503       -0.15801382258968        0.35288758698800
H            3.01996421681094        1.01793925875050        0.18821478092692
H            1.22033108539617        3.03888040238509        0.12394671090057
H           -1.85089458118666        5.29835540405349       -0.07018845143692
H           -3.02944337906146        3.38461508076598       -0.39433703688015
H           -3.24986892424721        0.96203152213874       -0.64076161979253
