110
 energy: -166.335999273963 gnorm: 0.000037609084 xtb: 6.7.1 (edcfbbe)
O            0.01628620234411       -4.78618653320970       -0.82116356262043
C            0.00099813069663       -3.52568297143046       -0.62692894408357
C           -1.22694679830353       -2.78253951028365       -0.84100537750450
C           -1.25593451806027       -1.42679841348253       -1.23103405845023
C           -2.44009774106068       -0.77638733749895       -1.45525615006806
C           -3.67666621200171       -1.44158885999095       -1.33153744033851
N           -4.86495156050217       -0.76061490497046       -1.48505574173656
C           -4.90544584788862        0.60746975307471       -1.83014751202516
C           -4.35382602168369        1.04758783145849       -3.02975391526875
C           -4.43326330370623        2.38569785966009       -3.36903991739105
C           -5.06674558872884        3.28526374544748       -2.52342362946707
C           -5.62462380503970        2.84053397164372       -1.33697025680536
C           -5.54929451186637        1.50484298684347       -0.97156172966196
Si          -6.24733749044262        0.69111099859736        0.58467151443562
C           -7.51301623636078        1.73665416151266        1.50899734995184
C           -8.68683181440510        2.14989475872979        0.88403784895640
C           -9.61496666114975        2.92399911467949        1.55665810416483
C           -9.38225535174138        3.29955969089476        2.87000889672323
C           -8.21877473628476        2.89651547811305        3.50474115680280
C           -7.29383718303574        2.12152632670409        2.82763123695245
C           -4.77903144024215        0.11465263472224        1.63632238554225
C           -4.89873461959819       -0.98288855465218        2.48464131620712
C           -3.80994674369892       -1.45811869480111        3.19298428525130
C           -2.57651093258035       -0.84090833468239        3.06503658817104
C           -2.44216757711449        0.25701962885139        2.23194195874528
C           -3.53411125373965        0.72702393042631        1.52511491727675
C           -6.96493255528329       -0.82692614313008       -0.28316759995063
C           -8.20881851483106       -1.40681507771802       -0.08362766256530
C           -8.60973554910385       -2.50334320423225       -0.82725762564096
C           -7.76775553712204       -3.02370655657316       -1.79955249641053
C           -6.52505373804293       -2.45856354337468       -2.02027126106122
C           -6.11840733850709       -1.36956501612181       -1.25595496799798
C           -3.65294732561399       -2.80144898170489       -0.96192118796132
C           -2.46729080075094       -3.45060286048111       -0.75004425023650
C            1.20513289496850       -2.84762229669508       -0.19244199488170
C            2.46350469899048       -3.44307680024642       -0.43354631146880
C            3.62892144428774       -2.86017090267660       -0.01739680742651
C            3.61471481128141       -1.66039067512411        0.72312142936763
N            4.78264747922906       -1.03784535441918        1.11043198687147
C            6.05677183671051       -1.53263425393141        0.75615719344276
C            6.45785480174910       -2.80474292825777        1.15335846274296
C            7.71904367361883       -3.26170779157847        0.81781370364304
C            8.58721286920920       -2.45343637452484        0.09771439957162
C            8.19400009486185       -1.17878012379431       -0.27137571140123
C            6.93147194048181       -0.70155687687808        0.04790149542420
Si           6.24778609141120        1.02404640316707       -0.29649662663263
C            4.84636602593423        0.90538302207154       -1.56680106538616
C            3.90937569537659        1.92925756692909       -1.68310279018388
C            2.84583875136064        1.82562188554087       -2.56098492169428
C            2.69993273719111        0.69027096929815       -3.34150593991423
C            3.62370014078936       -0.33623753734636       -3.23991940867919
C            4.68581270870491       -0.22662108675511       -2.36036753891587
C            7.56554383784457        2.30246078337686       -0.72280291443643
C            7.50415132555920        3.02502585815552       -1.90977396397561
C            8.47261327724286        3.96276110281907       -2.22197522905713
C            9.52252468687805        4.19226693708584       -1.34799885887285
C            9.59835434285711        3.47949512011909       -0.16208268737675
C            8.62721986695956        2.54382079528205        0.14547292413428
C            5.45453774402452        1.27237436950273        1.40237573643213
C            5.48690272390727        2.41323680758758        2.19049620843468
C            4.86184606705807        2.44392015377693        3.42525211908525
C            4.20031488565730        1.31687518367005        3.89245996053165
C            4.16037038002331        0.16592756248394        3.12806495927777
C            4.78099024700789        0.14300467691793        1.88168699990118
C            2.36059118115929       -1.06992652988720        0.98411749764322
C            1.19694209836647       -1.64790411038539        0.55227763046029
H           -0.32642693861233       -0.89638696972084       -1.37187822834488
H           -2.42090167638081        0.26987193901120       -1.71710642007089
H           -3.88193833740356        0.33833758720386       -3.69472356747922
H           -4.00763970336358        2.72550332662210       -4.30174404141169
H           -5.12644800959348        4.32896663053648       -2.79394199877811
H           -6.11910969551226        3.53604087920440       -0.67485321683277
H           -8.87064415057373        1.86054881559310       -0.14083275688326
H          -10.52168007010990        3.23643209241639        1.05822504162708
H          -10.10568641562506        3.90494791017385        3.39714948538530
H           -8.03338653612939        3.18747178134952        4.52909991388942
H           -6.38732110224103        1.80891943234903        3.32556927581462
H           -5.85652240221310       -1.47407640682298        2.58340961297274
H           -3.91916247011430       -2.31625384103399        3.84116988615888
H           -1.72259295487755       -1.21727697730781        3.61019414877905
H           -1.48235251069534        0.74345786482371        2.12870538810523
H           -3.41971644787866        1.58005947115161        0.87148239220458
H           -8.86331136814963       -0.99374360002478        0.66991249169449
H           -9.57822640533912       -2.95001503854534       -0.65778339553658
H           -8.08288539280215       -3.86781408298283       -2.39513856449438
H           -5.87565849400030       -2.84558111295886       -2.79260943777691
H           -4.57885955708956       -3.33563338127598       -0.81719598020142
H           -2.45558859921758       -4.49465880755216       -0.47147792690946
H            2.48112908139922       -4.36816201351936       -0.99193623589905
H            4.56843130361972       -3.31988119200223       -0.28088296007968
H            5.79034491812641       -3.42050553622468        1.73920009689698
H            8.02842831371887       -4.24877613483805        1.12866566081145
H            9.56983227023197       -2.81664377441983       -0.16440634727320
H            8.86935940042436       -0.54030213763185       -0.82181176798709
H            4.01521371379669        2.81499541303540       -1.07278960623011
H            2.12606716095416        2.62860178867372       -2.63596182316218
H            1.86670065521618        0.60308881708112       -4.02430581761106
H            3.51110155749503       -1.22713794065966       -3.84173190203050
H            5.39922716731476       -1.03486817359492       -2.28350398309138
H            6.68749507471739        2.84822838849432       -2.59474705976109
H            8.40975585003865        4.51599463149729       -3.14842742401423
H           10.27989007177421        4.92392532796524       -1.59052393726611
H           10.41622817498599        3.65509258534426        0.52234316964280
H            8.69001101363635        1.98971357273883        1.07118289798880
H            6.00471026871224        3.28704377251360        1.82300907196621
H            4.89104049487376        3.34028526533114        4.02671702104680
H            3.72227054609598        1.33081641452326        4.86090076708176
H            3.66679447201771       -0.72222395847713        3.49649318924406
H            2.31400106135088       -0.13426949974022        1.51953080283962
H            0.25265172447797       -1.18917664047340        0.80199151192857
