110
 energy: -166.424858475626 gnorm: 0.000073472638 xtb: 6.7.1 (edcfbbe)
O            0.05412275372662       -4.99219925911992       -0.81935104308260
C            0.05231943127900       -3.77830946558378       -0.60905109061105
C           -1.13736460303343       -2.95584539449730       -0.88281494730800
C           -1.05034139006768       -1.61640861052815       -1.26922590674399
C           -2.18119151672558       -0.88634461058747       -1.54914234276789
C           -3.45839634427658       -1.45841017146776       -1.44930644182296
N           -4.58818233651926       -0.71083163839618       -1.66940361325573
C           -4.52699393770554        0.67508856342125       -1.96667822695007
C           -3.96557159213166        1.11273299919059       -3.15941418836256
C           -3.93897424389573        2.46664737745727       -3.44622616663423
C           -4.48167301478009        3.37961511485117       -2.55539424028917
C           -5.05487349747377        2.93632376511137       -1.37605709202078
C           -5.07933069621813        1.58446257165196       -1.06371548756102
Si          -5.83307883716776        0.76993141595505        0.46680374156581
C           -7.02329682395903        1.87016949116658        1.42852690035505
C           -8.12527867799223        2.44309220130800        0.79890339054751
C           -9.00438233087409        3.24956215498750        1.49883207287599
C           -8.79485621629373        3.49618870956494        2.84621435286550
C           -7.70302058536091        2.93319192410995        3.48641589709383
C           -6.82628412293451        2.12790483073231        2.78102971177343
C           -4.41090824503911        0.07833320806649        1.51215135663298
C           -4.59803217728871       -1.03258070009322        2.33011377446041
C           -3.54838568373535       -1.57036459399588        3.05286151127682
C           -2.28691924612564       -1.00413502605382        2.96947570423014
C           -2.08428347696115        0.10306611030497        2.16278802510607
C           -3.13761812214211        0.63583061970177        1.44205316428859
C           -6.67200317666274       -0.66535600412296       -0.43441277341794
C           -7.95565047590396       -1.15229158400317       -0.23334681936285
C           -8.44880739228570       -2.18782696235374       -1.00809073172469
C           -7.66290980906476       -2.73788409363362       -2.00862192480999
C           -6.38375086651018       -2.25870538055980       -2.23279927915824
C           -5.88772576644462       -1.23182673534953       -1.44016888328527
C           -3.54248585591084       -2.80299751112458       -1.05715544610657
C           -2.40688382225587       -3.53245097196555       -0.80110913174817
C            1.24339119182776       -3.09091013006060       -0.08210858263936
C            2.51419025287595       -3.57282746051396       -0.40154763456730
C            3.65067334231616       -2.95059627647809        0.05588932067246
C            3.56682220342476       -1.83285862197162        0.89951153945334
N            4.69526897657138       -1.17650707604927        1.32445017902403
C            5.98628424862810       -1.52807651167861        0.85243526802602
C            6.55259173308291       -2.74828169513148        1.19756187708454
C            7.82082024450299       -3.06616486827393        0.74287971684729
C            8.52557955835233       -2.16784000142644       -0.04297440100443
C            7.96388494272694       -0.94489970087058       -0.36666936599688
C            6.69030248824557       -0.61102796569172        0.07133451180886
Si           5.77983326321894        1.02270305221942       -0.19901307959546
C            4.30431703205620        0.73209446179181       -1.35308506045491
C            3.17718230732454        1.54639003489289       -1.28008734322065
C            2.07789067421892        1.31709955831913       -2.08747556197535
C            2.08609305055320        0.26177130624697       -2.98493931535204
C            3.19908355860320       -0.55779207467382       -3.07054328329502
C            4.29563412540443       -0.32299188016182       -2.26061319862528
C            6.90090531312463        2.43716300939038       -0.74326047266216
C            6.62599241567806        3.16921205901571       -1.89345784893923
C            7.45411487317340        4.20321532588852       -2.29328439646006
C            8.57603158574619        4.52130767041539       -1.54554750800923
C            8.86330733381571        3.80165955266183       -0.39670822998831
C            8.03135199328041        2.76986916441940       -0.00129435229955
C            5.10736686302096        1.20148817635467        1.56030571689369
C            5.07768490864043        2.34905785669039        2.34018632116400
C            4.57095583983171        2.31687785569645        3.62780780940498
C            4.10010392941131        1.12487682341011        4.15605187199059
C            4.13299409057218       -0.03360062255817        3.39931304969976
C            4.62773882100897        0.00803287708325        2.10204981091339
C            2.28839258097356       -1.37043455341136        1.24604135368798
C            1.15585050139268       -1.98092926605935        0.76074652164749
H           -0.08064895918789       -1.15187745038417       -1.37191281844311
H           -2.08115606172916        0.14930300977299       -1.83278248231692
H           -3.55754898928143        0.39476052484808       -3.85663546929913
H           -3.50128152095099        2.80795821993485       -4.37306724850982
H           -4.46108625798135        4.43482166173750       -2.78534936968832
H           -5.48301305401523        3.64343511312295       -0.68045833370014
H           -8.29188658830993        2.25266471820426       -0.25186958963027
H           -9.85493208850020        3.68720612221325        0.99545628472907
H           -9.48033929355428        4.12573879982713        3.39537819826229
H           -7.53598514328922        3.12307403359720        4.53737145630606
H           -5.97523525535919        1.69094542814547        3.28349696921186
H           -5.57840568862621       -1.48318902247541        2.39533255719582
H           -3.71084756669046       -2.43630348489735        3.67917306552370
H           -1.46470773515851       -1.42728402507497        3.52916808774533
H           -1.10277852534299        0.55038933089935        2.09239877064629
H           -2.97066654538938        1.49677411802442        0.81065481211454
H           -8.56744506652464       -0.71606684067771        0.54298896872373
H           -9.44683433840488       -2.56454141647820       -0.83830390704077
H           -8.04906125910422       -3.53784518022893       -2.62347004229804
H           -5.77128938581026       -2.67492508589411       -3.02011448698433
H           -4.50787785372116       -3.26891041214979       -0.93686433971497
H           -2.48159601445961       -4.56922945523175       -0.50426554803786
H            2.58913586144462       -4.43675566864075       -1.04711797609173
H            4.61550492817669       -3.32061552494207       -0.25315376869066
H            6.00292169791243       -3.43966340208219        1.82048399886950
H            8.26161244494973       -4.01564429267652        1.00984416565235
H            9.51467654998778       -2.42072938150733       -0.39581953603413
H            8.51291684844887       -0.23839898423802       -0.97218973000204
H            3.16297499640553        2.36748359841430       -0.57736821076870
H            1.21050927959247        1.95815956370260       -2.01505201129578
H            1.22745863873241        0.07611817902658       -3.61460136357185
H            3.20817912343995       -1.38521441076595       -3.76604155651901
H            5.15836741454277       -0.97026841657414       -2.32956873779997
H            5.75289166592183        2.92285311765990       -2.48055382463213
H            7.22609626994753        4.76182334212477       -3.19017035745531
H            9.22528097353476        5.32716967390452       -1.85708650121642
H            9.73771970232470        4.04655566489838        0.18973516701829
H            8.25866921424386        2.21052098133472        0.89517030235348
H            5.45151710205529        3.27453194816218        1.92663737614200
H            4.54583939440954        3.21769801698913        4.22337728405670
H            3.71364189539161        1.09365740442711        5.16441532355741
H            3.77967353656418       -0.96891232635231        3.80986819057164
H            2.18974575613513       -0.50710431064994        1.88515549723157
H            0.18425177983755       -1.60990027196461        1.05196812439064
