  110
       -166.26852052
 O         -0.0032994517       -4.8162189120        0.0152771277
 C         -0.0031447542       -3.5541884257        0.0083437959
 C         -1.1860385535       -2.8240710870       -0.4170082694
 C         -1.1309296531       -1.5368425853       -0.9890952272
 C         -2.2704089377       -0.8922907878       -1.3897424805
 C         -3.5354755945       -1.4995786035       -1.2603433512
 N         -4.6844928587       -0.8080009596       -1.5666304239
 C         -4.6543908545        0.5182021057       -2.0436804512
 C         -4.0613988497        0.8144436407       -3.2661389476
 C         -4.0776074966        2.1139730087       -3.7374729722
 C         -4.6884155128        3.1188985850       -2.9991151834
 C         -5.2808895950        2.8193313412       -1.7850486943
 C         -5.2667477024        1.5254645260       -1.2882530372
 Si        -5.9903467944        0.8823062182        0.3316686237
 C         -7.1616295325        2.0655827623        1.2049485868
 C         -8.2810808281        2.5659205128        0.5473269852
 C         -9.1474048789        3.4360730441        1.1830100704
 C         -8.9048875775        3.8202598625        2.4916753231
 C         -7.7943609904        3.3303974589        3.1585354690
 C         -6.9313613617        2.4598886918        2.5176548429
 C         -4.5145686729        0.2856812720        1.3629944335
 C         -4.5496008791       -0.9458868195        2.0093215832
 C         -3.4308507606       -1.4480796163        2.6476579951
 C         -2.2515131373       -0.7231141904        2.6510658909
 C         -2.2012427910        0.5079141212        2.0186182020
 C         -3.3229367024        1.0036974709        1.3799570525
 C         -6.8001777243       -0.6542059367       -0.4027650632
 C         -8.0772181880       -1.1431638229       -0.1752545973
 C         -8.5216155508       -2.2876632074       -0.8128794552
 C         -7.6883632387       -2.9513079334       -1.7033877392
 C         -6.4148927772       -2.4744612248       -1.9539641350
 C         -5.9677055273       -1.3310825243       -1.3019399382
 C         -3.5900689896       -2.8014846278       -0.7251663853
 C         -2.4480661298       -3.4485838177       -0.3408444699
 C          1.1804115867       -2.8219156565        0.4286742129
 C          2.4413178601       -3.4501147842        0.3633415326
 C          3.5838132399       -2.8010505035        0.7429884772
 C          3.5305025352       -1.4933259578        1.2640342443
 N          4.6797072492       -0.8002636916        1.5663912090
 C          5.9634437258       -1.3256522557        1.3084585349
 C          6.4091521074       -2.4639139713        1.9704032634
 C          7.6831031887       -2.9429088326        1.7263509961
 C          8.5182534906       -2.2866702658        0.8321785426
 C          8.0756009440       -1.1468479779        0.1851084702
 C          6.7983413479       -0.6555363455        0.4063997227
 Si         5.9921022096        0.8773003111       -0.3397365331
 C          4.5202521385        0.2713050288       -1.3712803494
 C          3.3243908685        0.9818059411       -1.3902718088
 C          2.2050750529        0.4758971014       -2.0251031552
 C          2.2622408049       -0.7575060726       -2.6521996198
 C          3.4463401073       -1.4744876780       -2.6480319884
 C          4.5623963261       -0.9625375065       -2.0129377457
 C          7.1680521942        2.0585200601       -1.2095906183
 C          6.9419112077        2.4578727528       -2.5214466322
 C          7.8081734533        3.3293958156       -3.1566614541
 C          8.9176627902        3.8151416421       -2.4849874957
 C          9.1560454166        3.4258095487       -1.1770260845
 C          8.2865455769        2.5547712989       -0.5470960458
 C          5.2640671601        1.5308371039        1.2739091915
 C          5.2770980192        2.8281134247        1.7617709210
 C          4.6795911599        3.1364692475        2.9711062406
 C          4.0644650034        2.1371727443        3.7136869562
 C          4.0500456777        0.8343209300        3.2517235071
 C          4.6485463992        0.5291396418        2.0341258139
 C          2.2662100378       -0.8822858060        1.3837170395
 C          1.1263603062       -1.5287785226        0.9875942767
 H         -0.1739154864       -1.0595537281       -1.1226327341
 H         -2.1999334419        0.1072222772       -1.7885405341
 H         -3.6060095375        0.0245051055       -3.8463142809
 H         -3.6205269027        2.3432508330       -4.6885741533
 H         -4.7007305199        4.1310513253       -3.3744472042
 H         -5.7545872033        3.5976697631       -1.2038479434
 H         -8.4704198176        2.2670941535       -0.4742165292
 H        -10.0126217252        3.8164856899        0.6593531547
 H         -9.5802211736        4.4997517434        2.9904776845
 H         -7.6023490303        3.6275373941        4.1793934292
 H         -6.0648861540        2.0777459931        3.0382948689
 H         -5.4639458315       -1.5221233889        1.9993133221
 H         -3.4725017629       -2.4109790157        3.1353005011
 H         -1.3747872735       -1.1198324269        3.1419592237
 H         -1.2828893598        1.0786178186        2.0172496056
 H         -3.2743942895        1.9592930306        0.8764600991
 H         -8.7211196509       -0.6213842722        0.5183360586
 H         -9.5151871239       -2.6645319446       -0.6222168460
 H         -8.0359291418       -3.8385824719       -2.2109211633
 H         -5.7711296328       -2.9745069440       -2.6633622094
 H         -4.5443938325       -3.2830796327       -0.5878341679
 H         -2.4935098796       -4.4450913042        0.0700169502
 H          2.4856436515       -4.4513891640       -0.0358994588
 H          4.5375041747       -3.2861630813        0.6138207809
 H          5.7639009734       -2.9581656237        2.6825042208
 H          8.0294567691       -3.8260956787        2.2417793570
 H          9.5118746692       -2.6655950090        0.6460344925
 H          8.7210144919       -0.6304647144       -0.5110954147
 H          3.2698411502        1.9386180661       -0.8896385318
 H          1.2833821835        1.0407131073       -2.0254096311
 H          1.3872552436       -1.1623237745       -3.1394987990
 H          3.4934914770       -2.4390027708       -3.1318776352
 H          5.4808102452       -1.5323487881       -2.0025063411
 H          6.0765102235        2.0787895696       -3.0462689135
 H          7.6193999214        3.6307876542       -4.1769000041
 H          9.5951315811        4.4954827881       -2.9797089168
 H         10.0205245023        3.8027040918       -0.6497889054
 H          8.4723439881        2.2518880876        0.4738354141
 H          5.7540035522        3.6020261081        1.1772814351
 H          4.6904786478        4.1512865304        3.3393298840
 H          3.6031205976        2.3736208837        4.6609036123
 H          3.5912141723        0.0487906430        3.8351813938
 H          2.1964187608        0.1218962583        1.7706522125
 H          0.1700090252       -1.0482535293        1.1140962168
