  110
       -166.36000401
 O         -0.0410594262       -5.0005297716       -0.3343793636
 C          0.0122200811       -3.7821294698       -0.2234140065
 C         -1.1261529002       -2.9195217213       -0.5911410451
 C         -0.9595319121       -1.5923721591       -0.9886619432
 C         -2.0375922273       -0.8271601812       -1.3669526217
 C         -3.3347976950       -1.3551576821       -1.3644833525
 N         -4.4203581095       -0.5727185736       -1.6842862796
 C         -4.2939103200        0.8176061803       -1.9175093582
 C         -3.6179047630        1.2849707099       -3.0371234080
 C         -3.5268254362        2.6474124607       -3.2622754470
 C         -4.1184090621        3.5420008094       -2.3843616987
 C         -4.8021977427        3.0715616237       -1.2768880668
 C         -4.8913796119        1.7110453047       -1.0268802244
 Si        -5.7735317958        0.8444405893        0.4005841570
 C         -6.9672536450        1.9224998551        1.3755061037
 C         -7.9358918383        2.6750495944        0.7181301306
 C         -8.8256319419        3.4613965005        1.4263867010
 C         -8.7603684839        3.5045866541        2.8093530368
 C         -7.8021202686        2.7602118093        3.4773451312
 C         -6.9134501136        1.9768339638        2.7632944896
 C         -4.4292209312       -0.0089066145        1.4285111444
 C         -4.6324883002       -1.2848859078        1.9442508786
 C         -3.6146963797       -1.9635483509        2.5884309455
 C         -2.3699969876       -1.3742261631        2.7289180333
 C         -2.1535126960       -0.1011118129        2.2294815727
 C         -3.1747584714        0.5714255316        1.5841871781
 C         -6.6025031257       -0.4997411319       -0.6350951390
 C         -7.9125400960       -0.9477405644       -0.5647462284
 C         -8.3597803972       -1.9517242387       -1.4058820514
 C         -7.4967578376       -2.5110196124       -2.3352036147
 C         -6.1899453822       -2.0661671842       -2.4304034516
 C         -5.7436354345       -1.0635292472       -1.5794264262
 C         -3.5008211339       -2.6872666402       -0.9621028502
 C         -2.4173441548       -3.4496456171       -0.5984671656
 C          1.2340462472       -3.1019050021        0.2573911950
 C          2.4835707094       -3.6140575454       -0.0870928204
 C          3.6437550458       -2.9893750836        0.3063722125
 C          3.6007140028       -1.8369860549        1.1005750050
 N          4.7532686405       -1.1667234473        1.4462128159
 C          6.0062067842       -1.5154213995        0.8868279821
 C          6.6134789328       -2.7198321320        1.2179497652
 C          7.8464562892       -3.0364532236        0.6749520406
 C          8.4796774262       -2.1521730498       -0.1840745223
 C          7.8785609450       -0.9459093309       -0.4981904608
 C          6.6372423283       -0.6174986772        0.0248319357
 Si         5.6647242947        0.9778924054       -0.2383321738
 C          4.1040771128        0.5812800286       -1.2372798537
 C          2.9752140034        1.3888930365       -1.1377214642
 C          1.8175297078        1.0828413844       -1.8289993746
 C          1.7685718275       -0.0448337744       -2.6323372929
 C          2.8786826981       -0.8661761772       -2.7310519967
 C          4.0345569670       -0.5524292538       -2.0400767178
 C          6.6728089997        2.3991323311       -0.9502195845
 C          6.2697349755        3.0537194750       -2.1082769181
 C          7.0126355001        4.0979975122       -2.6286963567
 C          8.1750941024        4.5037777786       -1.9948394119
 C          8.5896593738        3.8611868823       -0.8396905407
 C          7.8427148645        2.8181575483       -0.3241016305
 C          5.1426762416        1.2237677487        1.5605413950
 C          5.1595658786        2.3985407077        2.2969952516
 C          4.7438693251        2.4098533007        3.6168603554
 C          4.3114262255        1.2365537594        4.2149338074
 C          4.3015265464        0.0516328035        3.5005962906
 C          4.7167401158        0.0451086902        2.1748981876
 C          2.3445283136       -1.3449639668        1.4773492662
 C          1.1878486630       -1.9612455220        1.0583009470
 H          0.0290741429       -1.1630752121       -1.0200655718
 H         -1.8782094216        0.2009626226       -1.6500583853
 H         -3.1729909525        0.5833955089       -3.7282330464
 H         -3.0008998276        3.0113988413       -4.1326874362
 H         -4.0473622085        4.6038842579       -2.5673813559
 H         -5.2677860739        3.7640082945       -0.5901857662
 H         -7.9892726107        2.6397249585       -0.3608902287
 H         -9.5714776571        4.0411873845        0.9018292824
 H         -9.4552789142        4.1168269276        3.3648480981
 H         -7.7495571211        2.7903860061        4.5561989385
 H         -6.1657745859        1.3962485045        3.2849777392
 H         -5.5989219981       -1.7545465996        1.8269872419
 H         -3.7866396595       -2.9577776249        2.9741945927
 H         -1.5722151147       -1.9080308967        3.2249636251
 H         -1.1843946800        0.3658413243        2.3367797297
 H         -2.9956929285        1.5595845521        1.1845721399
 H         -8.5802033850       -0.5083043397        0.1627152875
 H         -9.3796943816       -2.3000024332       -1.3401239521
 H         -7.8448956472       -3.2912884457       -2.9956085125
 H         -5.5162090327       -2.4898819349       -3.1612502659
 H         -4.4896839826       -3.1140152738       -0.9158013861
 H         -2.5526439862       -4.4756457838       -0.2906268998
 H          2.5266765485       -4.5028639258       -0.6986544612
 H          4.5922627331       -3.3831481987       -0.0202575894
 H          6.1237012138       -3.3987649162        1.9010420943
 H          8.3180942305       -3.9737370130        0.9304073237
 H          9.4425164846       -2.4037362634       -0.6031262321
 H          8.3691611933       -0.2498405286       -1.1635062099
 H          3.0074892694        2.2671648489       -0.5080091548
 H          0.9494908513        1.7210945955       -1.7410431672
 H          0.8679962652       -0.2838434086       -3.1791015243
 H          2.8394913950       -1.7538078710       -3.3455573791
 H          4.8971181278       -1.1979598636       -2.1193082163
 H          5.3630401110        2.7374686335       -2.6041621104
 H          6.6860996379        4.5965194106       -3.5299776051
 H          8.7569538796        5.3185861805       -2.3999187352
 H          9.4960709969        4.1748040124       -0.3423286985
 H          8.1670527362        2.3171975052        0.5772385948
 H          5.4971403171        3.3101497908        1.8246200982
 H          4.7566118592        3.3299748045        4.1819477376
 H          3.9911149526        1.2417531992        5.2462565582
 H          3.9783613269       -0.8686504790        3.9657352641
 H          2.2798547957       -0.4536690106        2.0810778284
 H          0.2319419654       -1.5671509909        1.3650818867
