110
 energy: -166.335672055582 gnorm: 0.000135436478 xtb: 6.7.1 (edcfbbe)
O           -0.00154152146208       -4.83138061138511        0.00621624764820
C           -0.00103128372129       -3.55571094874779        0.00441368266983
C           -1.18932835836053       -2.83266865042341       -0.40327193436158
C           -1.15152692401625       -1.54060848319249       -0.97067105611088
C           -2.29825444290410       -0.89985348857298       -1.35623253101523
C           -3.55989933814447       -1.51423403317499       -1.22197134516710
N           -4.71592016943827       -0.82656567401661       -1.52080868773996
C           -4.69455432404636        0.49639243137548       -2.01402505008306
C           -4.09905291057627        0.78173619028862       -3.23852526538662
C           -4.12256208746572        2.07620275294686       -3.72481405111233
C           -4.74135515449599        3.08462971211091       -2.99987621821635
C           -5.33814700469637        2.79430955039053       -1.78469003322744
C           -5.32049599799593        1.50532987935406       -1.27393820552093
Si          -6.05881743404647        0.88073252214014        0.35062527374572
C           -7.26386106935545        2.06512911695587        1.18132073002279
C           -8.35557548258205        2.57356768963709        0.48224851597063
C           -9.24396204256887        3.44372758406403        1.08787085304259
C           -9.05359600218361        3.82038246711221        2.40776832253035
C           -7.97218586949253        3.32230396883376        3.11592710639151
C           -7.08599667996346        2.45248781634012        2.50536048014209
C           -4.59242065234291        0.32545426795386        1.41778494558646
C           -4.64382108360122       -0.86425533444346        2.13859487067097
C           -3.53860641714424       -1.32817538497233        2.82851499749471
C           -2.35663714270272       -0.60703593472301        2.80972526487025
C           -2.29058866016311        0.58309717145975        2.10462259191624
C           -3.39858283946305        1.04131442152403        1.41537924038715
C           -6.84015983852584       -0.68077420006217       -0.37183928325083
C           -8.11240441923523       -1.18281995507465       -0.14363311883610
C           -8.54355303554195       -2.33717552342181       -0.77451611258277
C           -7.70232805091561       -2.99733239220278       -1.65863958630359
C           -6.43202157720658       -2.51026372136371       -1.90800976792568
C           -5.99787865464082       -1.35926744187342       -1.25921608286043
C           -3.60043688782249       -2.81835001913707       -0.68933426955332
C           -2.45103431304112       -3.46102871597315       -0.31913589819594
C            1.18778321772547       -2.83258175090598        0.41062300588271
C            2.44917161493757       -3.46169078585323        0.32744080029640
C            3.59892108563055       -2.81885181677073        0.69627826341434
C            3.55899241459343       -1.51366620437252        1.22634167339355
N            4.71531129347332       -0.82600963758639        1.52359276317536
C            5.99711150559628       -1.36010129430606        1.26401911928877
C            6.43061579365243       -2.50906211867825        1.91680292972658
C            7.70095856827267       -2.99723706627651        1.66974562674055
C            8.54257993079129       -2.34055887785673        0.78343137811687
C            8.11200073840683       -1.18824089869923        0.14844292381853
C            6.84001999200604       -0.68473417250247        0.37486088194243
Si           6.05971833248897        0.87516925659619       -0.35220422350239
C            4.59407834693762        0.31613419191274       -1.41842747804141
C            3.39889097245011        1.02968620022340       -1.41722536811804
C            2.29182038660993        0.56816700364549       -2.10576261701325
C            2.36016932801588       -0.62297956326143       -2.80892314307529
C            3.54356076929859       -1.34181352705912       -2.82658576576546
C            4.64781527766743       -0.87462909444465       -2.13735303291385
C            7.26495071122858        2.05715532992333       -1.18604689806197
C            7.08738279038234        2.44055938238381       -2.51127450687665
C            7.97345301661459        3.30890409902225       -3.12410104218817
C            9.05446052302985        3.80943515022238       -2.41705929684801
C            9.24457822939767        3.43665188581110       -1.09602971328417
C            8.35630550399889        2.56795832369680       -0.48814405120873
C            5.32139639866958        1.50468848785176        1.27047270090994
C            5.33941581140381        2.79507901220451        1.77764893509339
C            4.74162272513096        3.08921341915967        2.99142859117350
C            4.12147397729586        2.08327389442292        3.71867118059861
C            4.09790721675399        0.78739835800583        3.23618234097380
C            4.69440368431750        0.49825376370289        2.01305615410541
C            2.29763469534421       -0.89844603963941        1.35964535264841
C            1.15057316716697       -1.53950888966362        0.97571128312254
H           -0.19728776107852       -1.05762213686556       -1.11629341469393
H           -2.23335883501136        0.10155329780799       -1.75237452143248
H           -3.63624387874936       -0.01175187566257       -3.80788861629691
H           -3.66411771671331        2.29618048048739       -4.67773289376682
H           -4.75780789563616        4.09326035089935       -3.38537936346677
H           -5.81769725379003        3.57631677208128       -1.21439840477727
H           -8.50702740295360        2.28158185880329       -0.54709637440815
H          -10.08643648742893        3.83030002031577        0.53196481119787
H           -9.74626304740384        4.49994557729961        2.88331009838816
H           -7.82016175936379        3.61360924889226        4.14565059358979
H           -6.24344368127994        2.06635972063170        3.06076011647322
H           -5.55997176583524       -1.43786633759477        2.15072753189311
H           -3.59317964399486       -2.25959227216142        3.37432300730566
H           -1.48956707824250       -0.97582642324351        3.33923548880312
H           -1.37045902928212        1.15028879189428        2.08647344074264
H           -3.33683795888201        1.96564743952788        0.85855667847437
H           -8.76438421979057       -0.66347495876154        0.54344678816426
H           -9.53415725061397       -2.72263986329125       -0.58403177188808
H           -8.03961980387549       -3.89058440002120       -2.16352171442350
H           -5.78183888299466       -3.00787938475506       -2.61347206345257
H           -4.54933817009073       -3.31077403984809       -0.54584165402639
H           -2.48723364687769       -4.46179485353006        0.08702559378817
H            2.48483679931875       -4.46317589694784       -0.07699958752457
H            4.54765838549022       -3.31189542001770        0.55368499880575
H            5.77997771198219       -3.00407275389012        2.62367543070204
H            8.03795099001226       -3.88863657942084        2.17809354889473
H            9.53309650789913       -2.72704081726148        0.59450355378312
H            8.76431075806360       -0.67159327766238       -0.54035905508834
H            3.33545468183254        1.95505664150422       -0.86232112392411
H            1.37070589872691        1.13379833739418       -2.08889681595487
H            1.49375548720569       -0.99440009420137       -3.33766875215653
H            3.59985925389521       -2.27419273793239       -3.37057074763244
H            5.56497313619433       -1.44666013474242       -2.14820514996328
H            6.24508307890837        2.05258285913953       -3.06576908625315
H            7.82158794835213        3.59724641555225       -4.15468070151347
H            9.74696881058965        4.48795647332971       -2.89430989732755
H           10.08678534697357        3.82508192054075       -0.54101436175090
H            8.50760894860423        2.27893289568103        0.54205587963800
H            5.81994351569646        3.57521978518423        1.20563001097831
H            4.75820083158781        4.09896657737934        3.37399271322146
H            3.66197392177330        2.30630162817719        4.67037485397811
H            3.63452752915493       -0.00435026399757        3.80749947176946
H            2.23314331072066        0.10379965477837        1.75371468609095
H            0.19656840564308       -1.05582737397633        1.12061877128039
