86
 energy: -132.986739632402 gnorm: 0.000178975302 xtb: 6.7.1 (edcfbbe)
O            4.74797471221835        3.76605509275318        0.08426218694917
C            4.29533982821661        2.58510112321337        0.08187989031369
C            5.18119653824012        1.43497953858597        0.07816604046686
C            6.56856871502647        1.66092531920936        0.10044435836118
C            7.44884930054886        0.60540840739933        0.11654362606073
C            6.97249362266433       -0.69890186517307        0.10850427250571
C            5.60757139059585       -0.92995452492126        0.08329151192325
C            4.70156846947532        0.11935307073251        0.06636149311360
C            3.22793248194544       -0.20771559398740        0.02811091855784
C            2.35482976978107        1.01996015953812        0.04847734736064
C            0.98793706278939        0.84318429318007        0.06655824367877
C            0.12220243047515        1.93558612029148        0.10871544464289
N           -1.26429412171464        1.64912619199931        0.17415064106112
C           -2.10449549157760        1.87016358549838       -0.89824863776938
C           -1.74181428227714        2.74002872763799       -1.93087071655520
C           -2.63401329270578        3.02803835952001       -2.94184970018394
C           -3.89695237121028        2.45655362408108       -2.94227801250341
C           -4.24046003376656        1.54694255259655       -1.95557270906185
C           -3.35432575464645        1.22967873671674       -0.94004046507940
C           -3.60168569726610        0.08974183334281        0.02958465791496
C           -5.08090625141121       -0.19456965674122        0.20173738153055
C           -5.62481191531067       -1.46069290562884        0.04374625398851
C           -6.98002350120625       -1.67027108720360        0.24098986976039
C           -7.80465846007519       -0.62066855026749        0.60334830492662
C           -7.26651443644598        0.64442215881877        0.77572610198016
C           -5.91512670512633        0.85420602112142        0.57960792099281
C           -2.84028069875130       -1.09930249841333       -0.57434596140543
C           -1.89092887651497       -1.81215952320530        0.14586995496249
C           -1.18259789947337       -2.84267660115341       -0.44927615169977
C           -1.41368203392064       -3.18029885054225       -1.76959122682252
C           -2.37111230415320       -2.48686436620008       -2.49025002066638
C           -3.07474834093089       -1.45466330849179       -1.89890162576059
C           -2.98506951799482        0.44533473534646        1.36288680840563
C           -3.50692471888966        0.00502120552269        2.56763970139536
C           -2.83905819477580        0.23955528917355        3.75820398732462
C           -1.62341740668096        0.90704216913120        3.74868486894959
C           -1.09017103009325        1.36047168512590        2.56103592020238
C           -1.76974097083547        1.14567624878871        1.35816421933550
C            0.64050047845640        3.23354340048406        0.13365557001379
C            1.99572691599487        3.42257270723059        0.10209188179962
C            2.88623193755840        2.32199252974724        0.07480475262922
C            2.85357039383413       -1.13571547155372        1.16826100996574
C            2.89308557934087       -0.87869332478662        2.52072821472386
C            2.49337832027741       -1.87925983144636        3.39674763349791
C            2.07197869194811       -3.11183878884361        2.92166388379550
C            2.03298274790902       -3.37444056810011        1.56134460771090
C            2.41929057588377       -2.37675298591140        0.68157119939733
C            2.46106254702798       -2.34221493022700       -0.77255341628618
C            2.13899316687951       -3.30181987985101       -1.71738034386029
C            2.26281436770898       -2.97881802711927       -3.05913626974222
C            2.70323680795630       -1.72408774354387       -3.45154630202913
C            3.03794385413489       -0.76091231979766       -2.50901222524824
C            2.91418020856803       -1.07783244194570       -1.17453688166202
H            6.91530033887765        2.68289405958241        0.10805164724161
H            8.51227918966074        0.79478846151999        0.13613052643789
H            7.65845346148147       -1.53242840003271        0.12020138011299
H            5.23445775960351       -1.94457262998581        0.07461020933820
H            0.56983405824554       -0.15419582501461        0.04788875386334
H           -0.75961747282007        3.18441165572703       -1.93276996112296
H           -2.34515053724388        3.70570302851367       -3.73064211301760
H           -4.60291310034912        2.69518911436862       -3.72272068584293
H           -5.20967278379309        1.07075633155825       -1.98285530034904
H           -4.99083741919822       -2.29070724984186       -0.23051295748135
H           -7.38998814721530       -2.66131344009504        0.11270967689862
H           -8.86068121340004       -0.78658523843542        0.75586357458930
H           -7.90128021197340        1.46865912095998        1.06591325996469
H           -5.49543992585370        1.84052381903806        0.72003059374483
H           -1.69491567524463       -1.57600955431707        1.18134689931257
H           -0.44456537882204       -3.37567397221803        0.13040266239129
H           -0.85521945030489       -3.97775449576858       -2.23529070222160
H           -2.56834640740852       -2.74603152512465       -3.51999505061777
H           -3.81450596264221       -0.91813137009639       -2.47416178928133
H           -4.43645293093060       -0.54404377366633        2.57316817708102
H           -3.25935243051650       -0.11182706833530        4.68779310124591
H           -1.09162831375977        1.07903206197705        4.67190997061055
H           -0.15081272569974        1.89096273677758        2.55093485615916
H           -0.03110829872334        4.07707084722323        0.20196144113144
H            2.42983670734015        4.41052573341764        0.12394032593976
H            3.22840917251973        0.07970509002435        2.88945533563049
H            2.51461795374905       -1.69714366480973        4.46111147053860
H            1.77098479400398       -3.87783096790243        3.62170133684639
H            1.71223285751432       -4.34044492663292        1.19828443472628
H            1.80413454730813       -4.28360644418991       -1.41614096964462
H            2.01617087445821       -3.71456958210702       -3.81105314731066
H            2.79194234833185       -1.49475635630449       -4.50322589133880
H            3.38941297011897        0.21404783399537       -2.81354501435165
