  86
       -133.06851686
 O          3.8367976192        3.7511929535       -0.8000820592
 C          3.6390300205        2.6476508307       -0.3177154913
 C          4.7474113915        1.7056428912       -0.0365331014
 C          6.0524835225        2.1959685960       -0.0407247549
 C          7.1161004022        1.3667840956        0.2469550487
 C          6.8818939506        0.0304332652        0.5351859275
 C          5.5922422602       -0.4685160124        0.5300380304
 C          4.5125863084        0.3615793363        0.2561582711
 C          3.1202983332       -0.2072895034        0.1724439250
 C          2.0547392939        0.8389537422        0.3773997821
 C          0.7959525888        0.4559467315        0.7940549242
 C         -0.2282948395        1.3875346969        0.9831807002
 N         -1.4581008820        0.9779058670        1.4516441662
 C         -2.6122064977        1.7881184569        1.3852586402
 C         -2.7211092770        2.9667234737        2.1090736771
 C         -3.8861549631        3.7097246063        2.0342123556
 C         -4.9408302780        3.2703304142        1.2529946988
 C         -4.8443204579        2.0773321978        0.5547892994
 C         -3.6862644173        1.3219686347        0.6226776263
 C         -3.4501348429        0.0133447159       -0.1145673486
 C         -4.7313351515       -0.5421587809       -0.6948482887
 C         -4.8991721969       -0.7476872081       -2.0565004433
 C         -6.0918516812       -1.2521723692       -2.5483873595
 C         -7.1302839768       -1.5571618569       -1.6871552288
 C         -6.9718960022       -1.3537358001       -0.3258243940
 C         -5.7828538681       -0.8493011312        0.1656289942
 C         -2.3805332208        0.2571168852       -1.1800429925
 C         -1.5108545277       -0.7642830299       -1.5444538662
 C         -0.4966863148       -0.5347780534       -2.4553728819
 C         -0.3362008812        0.7197327049       -3.0166443077
 C         -1.2157546347        1.7339398390       -2.6834563031
 C         -2.2347534219        1.5032071138       -1.7762173882
 C         -2.8329456117       -0.9202103325        0.9165252269
 C         -3.1896297556       -2.2432159228        1.1142764264
 C         -2.5067629243       -3.0190147599        2.0372066038
 C         -1.4679554112       -2.4768857296        2.7743044851
 C         -1.1042986021       -1.1550044946        2.5913841345
 C         -1.7732824223       -0.3835703747        1.6510598199
 C          0.0188792005        2.7226910635        0.6341272660
 C          1.2609872787        3.0987924521        0.1882656002
 C          2.3087772072        2.1806408111        0.0817353390
 C          2.9021226443       -1.4049529825        1.0673427790
 C          2.9278649862       -1.4550252107        2.4445617302
 C          2.6520657082       -2.6637176233        3.0697944630
 C          2.3551193592       -3.7957960878        2.3260080927
 C          2.3329865431       -3.7516164112        0.9411475613
 C          2.6091519925       -2.5492140159        0.3114335007
 C          2.6618129707       -2.1953866756       -1.0985156716
 C          2.4986872893       -2.9648116428       -2.2389945709
 C          2.6366480280       -2.3555089196       -3.4764105358
 C          2.9269667056       -1.0027795739       -3.5757292333
 C          3.0864314999       -0.2243267025       -2.4368230455
 C          2.9541499250       -0.8294983689       -1.2074556624
 H          6.2002493805        3.2399557289       -0.2749364912
 H          8.1242759311        1.7534455580        0.2449664069
 H          7.7085710476       -0.6274913258        0.7602210974
 H          5.4189503670       -1.5135531338        0.7433007534
 H          0.5982264010       -0.5899455440        0.9653386367
 H         -1.9011162413        3.2907798723        2.7320089234
 H         -3.9705141462        4.6307603464        2.5910737267
 H         -5.8456419913        3.8553775705        1.1877419138
 H         -5.6705758218        1.7426446999       -0.0543837751
 H         -4.0967518867       -0.5127211759       -2.7398712702
 H         -6.2075517354       -1.4059893077       -3.6111598728
 H         -8.0594686239       -1.9499579894       -2.0725216884
 H         -7.7774144828       -1.5881514332        0.3548795379
 H         -5.6630937096       -0.6894124967        1.2281656642
 H         -1.6216105238       -1.7465917922       -1.1081442255
 H          0.1747580813       -1.3369612974       -2.7208952377
 H          0.4678498435        0.9015788338       -3.7132114456
 H         -1.1072356234        2.7131157143       -3.1256538839
 H         -2.9160534077        2.3034229286       -1.5251519659
 H         -3.9906130973       -2.6773931044        0.5345741195
 H         -2.7875946572       -4.0519967120        2.1770002412
 H         -0.9389817934       -3.0812149944        3.4954133553
 H         -0.3041966152       -0.7196782223        3.1709230000
 H         -0.7703095016        3.4545708321        0.6937965992
 H          1.4606569871        4.1254344657       -0.0806243484
 H          3.1558486897       -0.5713118330        3.0228702694
 H          2.6679291411       -2.7224415677        4.1482994585
 H          2.1403042823       -4.7249572938        2.8336536563
 H          2.1023552894       -4.6362553380        0.3664476482
 H          2.2741913134       -4.0187695284       -2.1666746339
 H          2.5180683764       -2.9419447754       -4.3760849911
 H          3.0334296713       -0.5508184174       -4.5508524364
 H          3.3144715874        0.8289261912       -2.5140934273
