  86
       -132.98085695
 O          4.7486581445        3.7625700005       -0.0218707255
 C          4.2960173125        2.5894240341        0.0272189271
 C          5.1768081354        1.4342145572        0.0921193155
 C          6.5635541568        1.6610745523        0.1458302249
 C          7.4411562445        0.6077357653        0.2372629326
 C          6.9635232166       -0.6959902105        0.2727841087
 C          5.5995990908       -0.9284441344        0.2145247904
 C          4.6963761360        0.1192616295        0.1228457362
 C          3.2251244922       -0.2100675078        0.0370762651
 C          2.3529309379        1.0185956480        0.0372567430
 C          0.9874008884        0.8435467071        0.0656856422
 C          0.1205682526        1.9384755544        0.0690138437
 N         -1.2637627058        1.6527156182        0.1503503448
 C         -2.1181399998        1.8637882725       -0.9122559136
 C         -1.7682277070        2.7210701468       -1.9602893641
 C         -2.6749595142        3.0023014365       -2.9599534803
 C         -3.9397335725        2.4350337116       -2.9354537811
 C         -4.2701394553        1.5344649955       -1.9360163007
 C         -3.3696807171        1.2241239553       -0.9310586428
 C         -3.6030636693        0.0892668503        0.0478011419
 C         -5.0795998194       -0.1944637721        0.2428190821
 C         -5.6269305598       -1.4599000829        0.0925680674
 C         -6.9792010580       -1.6681548277        0.3097330208
 C         -7.7973167524       -0.6177773134        0.6841648040
 C         -7.2555801497        0.6467538718        0.8488180956
 C         -5.9072275878        0.8550667231        0.6327416294
 C         -2.8493989141       -1.1003657591       -0.5656135348
 C         -1.8831764857       -1.8060764343        0.1388356286
 C         -1.1800726361       -2.8342389695       -0.4669843498
 C         -1.4334177113       -3.1765941535       -1.7821149835
 C         -2.4096436042       -2.4921019067       -2.4857387259
 C         -3.1073906587       -1.4617021193       -1.8842640127
 C         -2.9660946364        0.4500275313        1.3694565344
 C         -3.4685420881        0.0141219952        2.5839922905
 C         -2.7845628547        0.2575840150        3.7635493176
 C         -1.5721034822        0.9308606150        3.7332271060
 C         -1.0579238758        1.3796699668        2.5359106338
 C         -1.7527419180        1.1541262180        1.3430368189
 C          0.6419455764        3.2371461837        0.0440442260
 C          1.9958147344        3.4230849763        0.0024580881
 C          2.8874144819        2.3208327505        0.0190242842
 C          2.8149823089       -1.1562523095        1.1480679130
 C          2.8060488085       -0.9203176728        2.5050580723
 C          2.3830101050       -1.9367137089        3.3514650096
 C          1.9883429707       -3.1650303052        2.8436026959
 C          1.9975242996       -3.4064953900        1.4787528652
 C          2.4041126328       -2.3919225627        0.6278875852
 C          2.4920500163       -2.3331248171       -0.8234876352
 C          2.2000302977       -3.2763719807       -1.7941997448
 C          2.3659539582       -2.9306478987       -3.1256407000
 C          2.8172143809       -1.6691021860       -3.4825722701
 C          3.1198090228       -0.7215166500       -2.5140034773
 C          2.9540322042       -1.0613710180       -1.1898091948
 H          6.9091594526        2.6830307135        0.1180797517
 H          8.5037706339        0.7980158724        0.2822655266
 H          7.6474175174       -1.5283485957        0.3428691284
 H          5.2259639967       -1.9426754143        0.2377702881
 H          0.5675557023       -0.1531159327        0.0801596576
 H         -0.7838333344        3.1593718488       -1.9837474731
 H         -2.3957908209        3.6702442688       -3.7603351448
 H         -4.6572109284        2.6692537384       -3.7066022709
 H         -5.2408175805        1.0607335898       -1.9441211162
 H         -4.9977465962       -2.2905531502       -0.1905601503
 H         -7.3920631332       -2.6588171699        0.1878391197
 H         -8.8510477117       -0.7826636204        0.8521948271
 H         -7.8854612418        1.4716021378        1.1477316428
 H         -5.4844928912        1.8407749723        0.7676337423
 H         -1.6699264710       -1.5666404285        1.1702320542
 H         -0.4277760288       -3.3606088787        0.0999876696
 H         -0.8766991876       -3.9701228781       -2.2568203825
 H         -2.6244556936       -2.7546060678       -3.5110223237
 H         -3.8616311470       -0.9320182506       -2.4467879367
 H         -4.3956313506       -0.5385574616        2.6058218963
 H         -3.1896068522       -0.0909775885        4.7008397869
 H         -1.0286756409        1.1113058422        4.6479561195
 H         -0.1225791384        1.9164434737        2.5094610626
 H         -0.0284631431        4.0833284517        0.0872228389
 H          2.4335745066        4.4094985854       -0.0116685415
 H          3.1225200648        0.0340996553        2.8997576672
 H          2.3662066752       -1.7707748299        4.4185811394
 H          1.6709994698       -3.9444252082        3.5212803492
 H          1.6988225258       -4.3697527147        1.0901945694
 H          1.8547321733       -4.2626306647       -1.5207407791
 H          2.1426524666       -3.6531576487       -3.8973832528
 H          2.9391935662       -1.4221926229       -4.5268680830
 H          3.4792467769        0.2588445178       -2.7902892962
