86
 energy: -132.983438810240 gnorm: 0.000053555779 xtb: 6.7.1 (edcfbbe)
O            3.98244904709260        3.92243654824203       -0.24394759395163
C            3.74207749577472        2.70220913632472       -0.01037007301842
C            4.80833261181122        1.72829889010149        0.12320806765825
C            6.13887467637324        2.18336205491448        0.11520254654482
C            7.18039061329492        1.29874026983660        0.26381011184373
C            6.92734899475459       -0.05728793069326        0.42540514108576
C            5.61966254529990       -0.51626509177300        0.42360089019204
C            4.55489197179777        0.35673674306460        0.27926740555956
C            3.15341516884495       -0.19510130785197        0.19281410954874
C            2.11173661547086        0.86763778740500        0.43471837844071
C            0.83205970017297        0.48638192108813        0.75822563341965
C           -0.19297449135923        1.42414503689800        0.96894572075850
N           -1.45442042418392        0.98743368495089        1.33700567657946
C           -2.60423221603123        1.79177795492730        1.30065626686941
C           -2.70407392223129        2.97756435445613        2.01936867347228
C           -3.87412793458580        3.71273249758795        1.96643730345091
C           -4.94485959391392        3.26412659999378        1.21141707715449
C           -4.85980771981651        2.06349429528425        0.52325587396963
C           -3.70050818173974        1.31087498356777        0.57295323833371
C           -3.47843619773884       -0.00241938836029       -0.15716369398514
C           -4.77079729116938       -0.57257397565969       -0.69772927153464
C           -4.97025392375531       -0.79836168413284       -2.05167185527577
C           -6.17153781891547       -1.31726411955109       -2.50632706442305
C           -7.18641344991443       -1.61572665120599       -1.61526840539330
C           -6.99601276964032       -1.39184074635007       -0.26132336855813
C           -5.79809726132730       -0.87404753250094        0.19330008439030
C           -2.43430902650627        0.23569376755424       -1.25110232990293
C           -1.56896367691729       -0.78572369558671       -1.62560598741853
C           -0.57109070380836       -0.55820093560421       -2.55486606131581
C           -0.42384485169797        0.69373998378153       -3.12548251291730
C           -1.30144552559408        1.70686399099171       -2.78370087686973
C           -2.30345378705671        1.47875060722211       -1.85692093551451
C           -2.82885646855817       -0.92004586743981        0.86603913915687
C           -3.16106037887071       -2.24545830238596        1.08057639452265
C           -2.43785885943343       -3.01015321501004        1.98342288466653
C           -1.37910235179228       -2.45264878221275        2.68191243745396
C           -1.03392883047519       -1.13020857269098        2.47962205736024
C           -1.74571570478958       -0.36701313140876        1.55921825477186
C            0.08651309603820        2.77637752572970        0.70284947773033
C            1.35348678372652        3.16736273862101        0.36686818199430
C            2.40972292089855        2.23318221685106        0.25492460096216
C            2.92012457927172       -1.38847889118243        1.09141501550415
C            2.96577910176595       -1.43923777365113        2.46781729822550
C            2.66346835072410       -2.63895661897898        3.09832824642758
C            2.31926711372893       -3.76118487909523        2.36008573243708
C            2.27609706086304       -3.71642258248170        0.97549608190559
C            2.57986104416936       -2.52351246529626        0.34086711462284
C            2.61906855272791       -2.17056281931706       -1.07017479869023
C            2.41594399206460       -2.93478940943933       -2.20736676633157
C            2.55023759951524       -2.32813066028388       -3.44683199208772
C            2.87618758903742       -0.98382398236647       -3.55016605897733
C            3.07613967279044       -0.21104728941616       -2.41384235118131
C            2.94845406953753       -0.81300665084335       -1.18187145704597
H            6.31295184672330        3.24120944253280       -0.00860955332269
H            8.19749233090926        1.66303714825309        0.25519549591566
H            7.74201570847751       -0.75542284853457        0.54511304153889
H            5.42058745948197       -1.57332632264366        0.53252545644588
H            0.60722480219852       -0.56639340901203        0.82295947067420
H           -1.87909154283553        3.30348123350090        2.63405863210791
H           -3.95067616924498        4.63519751323389        2.52157033881327
H           -5.85319511378722        3.84474797146378        1.16205790221578
H           -5.69839471191058        1.71954811458415       -0.06322739871964
H           -4.18622348339196       -0.56853012771630       -2.75765138724953
H           -6.31229941974820       -1.48742136502428       -3.56357496518502
H           -8.12210232198493       -2.01986597838088       -1.97191739305350
H           -7.78317741420749       -1.62056820864604        0.44214397696947
H           -5.65306549069037       -0.69829383677543        1.25023250708205
H           -1.66941061712114       -1.76620813320665       -1.18284763666715
H            0.09971348639055       -1.35895139336643       -2.82557521136817
H            0.36890076221741        0.87419523889987       -3.83505556478731
H           -1.20449449422588        2.68383919296859       -3.23337206801899
H           -2.98218611913194        2.27884477074156       -1.59872664895661
H           -3.97512843556481       -2.69116292226160        0.52875812723089
H           -2.70233450745813       -4.04506016287800        2.13766700501692
H           -0.81925776045893       -3.04694031073933        3.38744488733721
H           -0.22242725308483       -0.68284182132996        3.03316062405653
H           -0.70018617527260        3.51271985494656        0.73804113119240
H            1.57845062935659        4.20405213107584        0.17005787446649
H            3.23140413928982       -0.56297318600682        3.04133229315885
H            2.69585181252407       -2.69849925093713        4.17655479346815
H            2.08479986653926       -4.68374502475597        2.87146492705276
H            2.00899298310437       -4.59385785736742        0.40530736956335
H            2.16471073516401       -3.98271727588282       -2.13229491019614
H            2.40104450081560       -2.91031518971275       -4.34499295532780
H            2.97946523778076       -0.53478920167143       -4.52718299966027
H            3.33363922773094        0.83479260444650       -2.49296736641175
