86
 energy: -133.068552203915 gnorm: 0.000147077469 xtb: 6.7.1 (edcfbbe)
O            3.86206212264546        3.76786008267189       -0.74839257207657
C            3.65639650317283        2.65653244087167       -0.28730087814197
C            4.75964795593048        1.70491087019173       -0.01772474158311
C            6.06753120089825        2.18812648871146       -0.01788830783447
C            7.12715599476111        1.35007959533656        0.25849649616042
C            6.88670934877254        0.01161391000818        0.53144767887120
C            5.59438842581759       -0.48015044448966        0.52270047703394
C            4.51868859517507        0.35872513558607        0.25989633411223
C            3.12450357563753       -0.20380794109087        0.17441580082511
C            2.06204224164444        0.84578431534515        0.37910591948650
C            0.79996669496387        0.46306634381140        0.78526129484932
C           -0.22321173076072        1.39522064652407        0.97665156324292
N           -1.45343220143087        0.98334918139819        1.44157822097078
C           -2.60996343591089        1.78996408470509        1.37642391812814
C           -2.72133561683418        2.96931332490212        2.09883909023277
C           -3.88943881435053        3.70769380939902        2.02632225331538
C           -4.94473831670819        3.26314269336177        1.24889237643041
C           -4.84552522836641        2.06976942566926        0.55186578829871
C           -3.68443330926430        1.31880375825446        0.61750220387287
C           -3.44597634658266        0.01073411820484       -0.11984311612530
C           -4.72704564652120       -0.55218378451874       -0.69324151411437
C           -4.89902870371127       -0.76603455963402       -2.05292019881897
C           -6.09154194356628       -1.27844409440224       -2.53716202007556
C           -7.12547826320151       -1.58248639305301       -1.67032383273385
C           -6.96295423222929       -1.37037533739313       -0.31081769746758
C           -5.77384963368108       -0.85909144560153        0.17303376249856
C           -2.38160843615357        0.25859891681154       -1.18954876946972
C           -1.51230767772615       -0.76081589136644       -1.56023979609658
C           -0.50181410464189       -0.52755194606440       -2.47423937815147
C           -0.34377539401294        0.72902797094937       -3.03160240785160
C           -1.22301270548423        1.74137107284259       -2.69200167131502
C           -2.23901900320396        1.50668180096432       -1.78243406879269
C           -2.82101576287301       -0.92061734473149        0.90843511805645
C           -3.16938390184299       -2.24628697937741        1.10401307275526
C           -2.47960642526950       -3.02002013944144        2.02345219942502
C           -1.44328866518521       -2.47283124614839        2.76044936457372
C           -1.08837809740358       -1.14838457081960        2.58001810034184
C           -1.76308852520828       -0.37933765770785        1.64158826857252
C            0.02776073821893        2.73154710608061        0.63461609563570
C            1.27363894711079        3.10778815985261        0.19919318224129
C            2.32148862468010        2.18891710759237        0.09530147005189
C            2.89757352715615       -1.39956277691811        1.06990376236768
C            2.92509599852255       -1.44943956643096        2.44705104454362
C            2.63375139013471       -2.65400344325585        3.07324532062081
C            2.31902698596156       -3.78185858375103        2.33037230797790
C            2.29521280826821       -3.73796714798473        0.94549963941723
C            2.58766392160044       -2.53996350857608        0.31482994689626
C            2.64176659184512       -2.18696137324597       -1.09533748898256
C            2.46538386042733       -2.95384659035185       -2.23548206678880
C            2.60739559984561       -2.34580040018430       -3.47313986102245
C            2.91561189066487       -0.99708973305074       -3.57307255982673
C            3.08856229234728       -0.22109099552802       -2.43444374634969
C            2.95145387201554       -0.82494315393418       -1.20499463712677
H            6.22045684415650        3.23405662988572       -0.23971212362674
H            8.13729179751331        1.73163593813660        0.25950315323482
H            7.71021545696634       -0.65326195627613        0.74740273782300
H            5.41526555908074       -1.52656525988148        0.72428183787260
H            0.59894126152321       -0.58356849343311        0.94747810267400
H           -1.90099743898157        3.29689579694615        2.71942197141916
H           -3.97556364722788        4.62899094032755        2.58240714060159
H           -5.85223778121358        3.84425724597243        1.18561345612815
H           -5.67236753172723        1.73127490882269       -0.05435326540306
H           -4.10023757632876       -0.53151187253668       -2.74070521902547
H           -6.21037774251562       -1.43927524940777       -3.59868403848860
H           -8.05421791302538       -1.98193041921560       -2.04999910653782
H           -7.76530090668359       -1.60337011167367        0.37399375302618
H           -5.65047588318070       -0.69236648071208        1.23416449075165
H           -1.62072856947901       -1.74454463901847       -1.12653114981744
H            0.16901923537922       -1.32837579365029       -2.74498891994776
H            0.45828267556769        0.91394655873266       -3.72967357036809
H           -1.11638609134863        2.72234985075369       -3.13072147097771
H           -2.91999810854958        2.30558426705556       -1.52658793142992
H           -3.96903922466228       -2.68392196433511        0.52509117931004
H           -2.75294869255825       -4.05531978247266        2.16088267058019
H           -0.90902114982021       -3.07550615952414        3.47905762379917
H           -0.28980845654586       -0.70926119188655        3.15877651912859
H           -0.76085719059728        3.46428542953064        0.69234888090573
H            1.47676923556511        4.13552512689191       -0.06292748590319
H            3.16555597608397       -0.56850499870967        3.02458679043429
H            2.65047813265430       -2.71247381552722        4.15176028017644
H            2.09144517845341       -4.70763436605058        2.83866520844035
H            2.05049386797020       -4.61933459779427        0.37161462696744
H            2.22707515142449       -4.00477058717018       -2.16282719160725
H            2.47715333469870       -2.92975434869563       -4.37285028904370
H            3.02482380827281       -0.54620867080958       -4.54839412968525
H            3.33013610518538        0.82913389756749       -2.51145480278581
