  101
       -159.03932846
 C         -0.4280836556       -0.9147085473        0.1079913911
 C          0.6306854890       -0.1819875905       -0.2920678121
 C          0.7354300834        1.2687006336       -0.2389434507
 C          1.9856503198        1.8883917878       -0.2949820894
 C          2.0877339632        3.2637501170       -0.2188080152
 C          0.9558883364        4.0487160750       -0.0874086488
 C         -0.2991819684        3.4445056317       -0.0532746416
 N         -1.4605634420        4.2182492198        0.0666485521
 C         -2.4917129720        3.9861653620        0.9560820230
 C         -2.5935398031        3.0380674799        1.9643485238
 C         -3.7357481832        3.0428207127        2.7424137285
 C         -4.7557998073        3.9690507849        2.5319628132
 C         -4.6480796677        4.9310433312        1.5478892870
 C         -3.5067749929        4.9496946499        0.7568376029
 C         -3.0581746495        5.8000715529       -0.3100639982
 C         -3.6129668776        6.8990548021       -0.9524983112
 C         -2.9070498707        7.4897349825       -1.9812235488
 C         -1.6710396610        6.9876024367       -2.3822664455
 C         -1.0983170377        5.8959407580       -1.7582523548
 C         -1.7907049144        5.3146969470       -0.7058601622
 C         -0.4053647112        2.0633548355       -0.1375786097
 N          1.7760484866       -0.8828206255       -0.7859830318
 N          1.9246121601       -2.1296628411       -0.1215500915
 C          3.1909198235       -2.4783309713        0.2984397444
 C          3.4047667307       -3.6606534371        1.0113482649
 C          4.6820909405       -3.9922862904        1.4139737180
 C          5.7562119835       -3.1583592802        1.1476368812
 C          5.5444258673       -1.9810627314        0.4363581875
 N          6.6021751101       -1.1024256011        0.1631207612
 C          7.8149870508       -1.4307323475       -0.4076348913
 C          8.2826113251       -2.6615562545       -0.8453599438
 C          9.5427600592       -2.7091986161       -1.4098732957
 C         10.3227774119       -1.5629940938       -1.5478277552
 C          9.8538384394       -0.3318319778       -1.1357597743
 C          8.5902460835       -0.2582205760       -0.5646778671
 C          7.7976607507        0.8265455333       -0.0574513940
 C          8.0154608252        2.1922189826        0.0701927352
 C          7.0255171370        2.9705529814        0.6358918757
 C          5.8381606951        2.4003167149        1.0901035745
 C          5.5990241239        1.0444591203        0.9753587597
 C          6.5777316551        0.2610423961        0.3796285609
 C          4.2710800715       -1.6541598930       -0.0070689474
 N          0.8839762003       -2.8962089089        0.1691740646
 C         -0.2964221533       -2.3556307569        0.1810841787
 C         -1.4616061942       -3.1952373024        0.4390793981
 C         -1.3340191317       -4.4334722473        1.0682265757
 C         -2.4572737604       -5.1880328779        1.3446845209
 C         -3.7191287734       -4.7278968353        1.0075511482
 C         -3.8553504732       -3.5087767929        0.3486519039
 N         -5.1183083818       -3.0280474894       -0.0186479511
 C         -6.1019427933       -3.7409345523       -0.6772444057
 C         -6.0900113945       -5.0492351611       -1.1393134500
 C         -7.2141872793       -5.5130294138       -1.7954484319
 C         -8.3254113198       -4.6986074047       -2.0010391957
 C         -8.3320447427       -3.3872211678       -1.5703525093
 C         -7.2134943007       -2.8983344099       -0.9086492333
 C         -6.8742176075       -1.6138528420       -0.3636495049
 C         -7.5485346418       -0.4020862009       -0.2872071808
 C         -6.9237256784        0.6655531343        0.3250926624
 C         -5.6534103175        0.5293739503        0.8800979379
 C         -4.9674511634       -0.6686376190        0.8223164442
 C         -5.5730514579       -1.7366819627        0.1746956404
 C         -2.7255848612       -2.7543634864        0.0583316170
 H         -1.3018944560       -0.4607454290        0.5416160576
 H          2.8726371066        1.2824910110       -0.3805770943
 H          3.0618845482        3.7284583428       -0.2522202376
 H          1.0356780362        5.1212973442        0.0004278601
 H         -1.8010966372        2.3278816492        2.1483481992
 H         -3.8384417052        2.3150073358        3.5344353974
 H         -5.6362125241        3.9340949435        3.1563865539
 H         -5.4295609372        5.6602007042        1.3965830066
 H         -4.5785159432        7.2774408585       -0.6524926741
 H         -3.3187803815        8.3474530036       -2.4919430469
 H         -1.1496232998        7.4601233786       -3.2016713893
 H         -0.1483273746        5.5039264761       -2.0890963508
 H         -1.3872651707        1.6162656782       -0.1520548953
 H          1.7135977340       -1.0321906494       -1.7965946676
 H          2.5651556246       -4.2979684016        1.2329899135
 H          4.8443568647       -4.9071246042        1.9641601975
 H          6.7453570841       -3.4034960046        1.5011828012
 H          7.6786937523       -3.5522473089       -0.7595421447
 H          9.9306705760       -3.6563279635       -1.7553949154
 H         11.3039125648       -1.6425852600       -1.9920255132
 H         10.4517025867        0.5590328253       -1.2562293056
 H          8.9437353596        2.6309600382       -0.2636418548
 H          7.1743132326        4.0350403263        0.7412594750
 H          5.0897345269        3.0294198924        1.5497713950
 H          4.6863841351        0.6095712117        1.3541699902
 H          4.1185936666       -0.7593592786       -0.5869251100
 H         -0.3507401568       -4.7779720071        1.3445566951
 H         -2.3554520294       -6.1391815161        1.8459963246
 H         -4.5980701498       -5.2996689047        1.2629134110
 H         -5.2272824885       -5.6841718933       -1.0057082860
 H         -7.2295737989       -6.5294158407       -2.1606261350
 H         -9.1863431133       -5.1000097522       -2.5146034035
 H         -9.1848050438       -2.7488725096       -1.7460501424
 H         -8.5415039265       -0.3035529910       -0.6993388347
 H         -7.4243896701        1.6201471427        0.3875788272
 H         -5.1959868824        1.3786805858        1.3658546064
 H         -3.9962749749       -0.7694092644        1.2835440864
 H         -2.8380413357       -1.8329714997       -0.4931315931
