  62
       -101.97411498
 O         -0.1299735728       -4.2476640409        1.0004773153
 C         -0.8306242858       -3.3686295233        0.5438950860
 C         -2.2230890773       -3.6296247173        0.0975789124
 C         -2.7303564111       -3.1379386263       -1.1067149608
 N         -3.9724841584       -3.3632081949       -1.4902657127
 C         -4.7192803247       -4.1104942302       -0.6965721291
 N         -4.3342035065       -4.6684734475        0.4372192049
 C         -3.0995746101       -4.4280363936        0.8354300453
 C         -0.3643934180       -1.9721244892        0.3708402998
 C         -1.2547693587       -0.9034649891        0.4160432867
 C         -0.7851493528        0.3958469183        0.2453548728
 N         -1.6711149721        1.4714327775        0.2992740817
 C         -2.9009422233        1.5395659055       -0.3341286024
 C         -3.5073833432        0.6371547847       -1.1953214590
 C         -4.7446472145        0.9682024842       -1.7149359302
 C         -5.3654866337        2.1743233028       -1.4009065647
 C         -4.7534054992        3.0907708749       -0.5690965690
 C         -3.5113339894        2.7776260232       -0.0332525749
 C         -2.6054398162        3.4829234156        0.8307869417
 C         -2.6615011883        4.7179117953        1.4626415616
 C         -1.6083351853        5.0950748418        2.2716080212
 C         -0.5200576274        4.2491565397        2.4690088615
 C         -0.4423750597        3.0155281633        1.8501788390
 C         -1.4827617188        2.6444095716        1.0110882378
 C          0.5721791372        0.6186094345        0.0285176084
 C          1.4658249561       -0.4488253611        0.0023873604
 N          2.8247513517       -0.2188624025       -0.2052148333
 C          3.3730957454        0.5918752395       -1.1834667141
 C          2.7492111998        1.3004819224       -2.1997387835
 C          3.5477214997        2.0114022250       -3.0761122624
 C          4.9350155928        2.0146282532       -2.9567105175
 C          5.5631301844        1.2886802633       -1.9642921251
 C          4.7815945854        0.5663811775       -1.0726747763
 C          5.0910476901       -0.2986236129        0.0323540378
 C          6.2813466532       -0.6943224011        0.6276754860
 C          6.2257663879       -1.5403617160        1.7172628962
 C          5.0037418465       -1.9770958186        2.2226231996
 C          3.8061077245       -1.5964506556        1.6468868288
 C          3.8574182443       -0.7680397849        0.5356923526
 C          0.9942118570       -1.7458550471        0.1789458978
 H         -2.1110311039       -2.5666061616       -1.7873132377
 H         -5.7391365741       -4.2888476350       -1.0097677772
 H         -2.7921921600       -4.8691783601        1.7746338731
 H         -2.2994230898       -1.0663240948        0.6279489184
 H         -3.0333486388       -0.2925624290       -1.4672781219
 H         -5.2355151161        0.2737000466       -2.3799081923
 H         -6.3336596119        2.3955129714       -1.8238180250
 H         -5.2243462473        4.0343199830       -0.3393277000
 H         -3.5155694405        5.3632199673        1.3249783158
 H         -1.6295231556        6.0526373642        2.7694353964
 H          0.2801220059        4.5604594742        3.1236641053
 H          0.3962611872        2.3609438945        2.0330384259
 H          0.9341149570        1.6243930562       -0.1125366474
 H          1.6762936993        1.2885842483       -2.3193678719
 H          3.0837431734        2.5727849538       -3.8733294119
 H          5.5237216173        2.5849883848       -3.6591198937
 H          6.6392534547        1.2742734254       -1.8829203897
 H          7.2270229698       -0.3416007530        0.2453214637
 H          7.1392624122       -1.8636149501        2.1930363586
 H          4.9892447424       -2.6257529194        3.0855842923
 H          2.8662213832       -1.9292067699        2.0596466226
 H          1.6674091739       -2.5868007122        0.1393862190
