  62
  -101.610468025200       0.535269624211288      !
 O         -0.1299735728       -4.2476640409        1.0004773153
 C         -0.8306242858       -3.3686295233        0.5438950860
 C         -2.2230890773       -3.6296247173        0.0975789124
 C         -2.7303564111       -3.1379386263       -1.1067149608
 N         -3.9724841584       -3.3632081949       -1.4902657127
 C         -4.7192803247       -4.1104942302       -0.6965721291
 N         -4.3342035065       -4.6684734475        0.4372192049
 C         -3.0995746101       -4.4280363936        0.8354300453
 C         -0.3643934180       -1.9721244892        0.3708402998
 C         -1.2547693587       -0.9034649891        0.4160432867
 C         -0.7851493528        0.3958469183        0.2453548728
 N         -1.6711149721        1.4714327775        0.2992740817
 C         -2.9009422233        1.5395659055       -0.3341286024
 C         -3.5073833432        0.6371547847       -1.1953214590
 C         -4.7446472145        0.9682024842       -1.7149359302
 C         -5.3654866337        2.1743233028       -1.4009065647
 C         -4.7534054992        3.0907708749       -0.5690965690
 C         -3.5113339894        2.7776260232       -0.0332525749
 C         -2.6054398162        3.4829234156        0.8307869417
 C         -2.6615011883        4.7179117953        1.4626415616
 C         -1.6083351853        5.0950748418        2.2716080212
 C         -0.5200576274        4.2491565397        2.4690088615
 C         -0.4423750597        3.0155281633        1.8501788390
 C         -1.4827617188        2.6444095716        1.0110882378
 C          0.5721791372        0.6186094345        0.0285176084
 C          1.4658249561       -0.4488253611        0.0023873604
 N          2.8247513517       -0.2188624025       -0.2052148333
 C          3.3730957454        0.5918752395       -1.1834667141
 C          2.7492111998        1.3004819224       -2.1997387835
 C          3.5477214997        2.0114022250       -3.0761122624
 C          4.9350155928        2.0146282532       -2.9567105175
 C          5.5631301844        1.2886802633       -1.9642921251
 C          4.7815945854        0.5663811775       -1.0726747763
 C          5.0910476901       -0.2986236129        0.0323540378
 C          6.2813466532       -0.6943224011        0.6276754860
 C          6.2257663879       -1.5403617160        1.7172628962
 C          5.0037418465       -1.9770958186        2.2226231996
 C          3.8061077245       -1.5964506556        1.6468868288
 C          3.8574182443       -0.7680397849        0.5356923526
 C          0.9942118570       -1.7458550471        0.1789458978
 H         -2.1110311039       -2.5666061616       -1.7873132377
 H         -5.7391365741       -4.2888476350       -1.0097677772
 H         -2.7921921600       -4.8691783601        1.7746338731
 H         -2.2994230898       -1.0663240948        0.6279489184
 H         -3.0333486388       -0.2925624290       -1.4672781219
 H         -5.2355151161        0.2737000466       -2.3799081923
 H         -6.3336596119        2.3955129714       -1.8238180250
 H         -5.2243462473        4.0343199830       -0.3393277000
 H         -3.5155694405        5.3632199673        1.3249783158
 H         -1.6295231556        6.0526373642        2.7694353964
 H          0.2801220059        4.5604594742        3.1236641053
 H          0.3962611872        2.3609438945        2.0330384259
 H          0.9341149570        1.6243930562       -0.1125366474
 H          1.6762936993        1.2885842483       -2.3193678719
 H          3.0837431734        2.5727849538       -3.8733294119
 H          5.5237216173        2.5849883848       -3.6591198937
 H          6.6392534547        1.2742734254       -1.8829203897
 H          7.2270229698       -0.3416007530        0.2453214637
 H          7.1392624122       -1.8636149501        2.1930363586
 H          4.9892447424       -2.6257529194        3.0855842923
 H          2.8662213832       -1.9292067699        2.0596466226
 H          1.6674091739       -2.5868007122        0.1393862190
  62
  -101.609677143100       0.231797288206239      !
 O         -3.1970411282       -2.8820718238        0.4549033639
 C         -2.0863340061       -2.8079645732       -0.0311373228
 C         -1.4654047432       -3.9752391587       -0.7068360297
 C         -0.7621211082       -3.8863344608       -1.9097545802
 N         -0.2306616858       -4.9455251227       -2.4904345372
 C         -0.4172364892       -6.1130292355       -1.9009810012
 N         -1.0962113848       -6.3239786828       -0.7873705140
 C         -1.6119667051       -5.2660788544       -0.1922611064
 C         -1.2817585218       -1.5638224866        0.0130482533
 C         -1.9567784686       -0.3585713222        0.1813054462
 C         -1.2505651701        0.8382455570        0.2435504947
 N         -1.9284161070        2.0408921960        0.4368701989
 C         -2.9129311921        2.2645226574        1.3855801053
 C         -3.4188671297        1.4120034555        2.3556285311
 C         -4.3878793080        1.9074002773        3.2078862460
 C         -4.8408173764        3.2206950022        3.1108578041
 C         -4.3211104401        4.0815892815        2.1650458959
 C         -3.3466509630        3.6060089242        1.2977598335
 C         -2.5905384608        4.2143386524        0.2381069768
 C         -2.5874803352        5.4846711574       -0.3219556373
 C         -1.7331454527        5.7415698205       -1.3758410650
 C         -0.9043088101        4.7445750562       -1.8833199814
 C         -0.8924275188        3.4730449100       -1.3419820282
 C         -1.7248319539        3.2166362524       -0.2632756605
 C          0.1387668759        0.8213397173        0.1453302575
 C          0.8163562843       -0.3840283202       -0.0140989374
 N          2.2112970437       -0.4012541623       -0.0766063204
 C          3.0012999924        0.3984550151       -0.8820748800
 C          2.6299303685        1.3207954347       -1.8481448856
 C          3.6322965772        1.9704101881       -2.5430190004
 C          4.9765322095        1.7040310402       -2.2954684391
 C          5.3526094283        0.7644233613       -1.3562899681
 C          4.3618254657        0.1003623972       -0.6453874268
 C          4.3869864797       -0.9273159563        0.3584880408
 C          5.4133988563       -1.6028922111        1.0048976791
 C          5.0866320454       -2.5415772302        1.9630800731
 C          3.7574301984       -2.7969838522        2.2907908411
 C          2.7190460110       -2.1365223522        1.6613586614
 C          3.0404901147       -1.2116491207        0.6789258800
 C          0.1064524873       -1.5792409951       -0.0857507439
 H         -0.6405902140       -2.9435123892       -2.4279351933
 H          0.0220254947       -6.9780690402       -2.3793125397
 H         -2.1541016629       -5.4364680273        0.7288096008
 H         -3.0330939428       -0.3668277837        0.2421823023
 H         -3.0661667397        0.3971109501        2.4548230049
 H         -4.8003101803        1.2602223547        3.9673707897
 H         -5.6016880153        3.5682776474        3.7930845479
 H         -4.6577272865        5.1049805133        2.0998712775
 H         -3.2457648339        6.2504851916        0.0587942469
 H         -1.7127618110        6.7234795106       -1.8237512834
 H         -0.2600404715        4.9666622624       -2.7208705522
 H         -0.2650345146        2.7028781548       -1.7621791944
 H          0.6962592953        1.7402701369        0.2375190909
 H          1.5914578094        1.5151090108       -2.0668968358
 H          3.3662426734        2.6954737886       -3.2976169106
 H          5.7311382978        2.2333142709       -2.8573095023
 H          6.3937847181        0.5427837492       -1.1785180920
 H          6.4436821726       -1.3907200990        0.7634049105
 H          5.8689368043       -3.0800540019        2.4761481035
 H          3.5314821006       -3.5239031729        3.0566219259
 H          1.6936891335       -2.3279894742        1.9408905640
 H          0.6445591325       -2.5060727133       -0.2046967894
  62
  -101.609517391700       0.195745456638337      !
 O         -3.1008606885       -2.7990090267        1.1340116719
 C         -2.0210251475       -2.7901665598        0.5781287031
 C         -1.4190307289       -4.0460138536        0.0612149210
 C         -0.8351352228       -4.1600233015       -1.2018430335
 N         -0.3215475820       -5.2954611847       -1.6367126574
 C         -0.4079852749       -6.3420704694       -0.8351833159
 N         -0.9704204819       -6.3631682382        0.3602305503
 C         -1.4682727768       -5.2265994015        0.8071229506
 C         -1.2405598410       -1.5466943392        0.3744126565
 C         -1.9173773804       -0.3336787487        0.4692021688
 C         -1.2341099462        0.8644779543        0.2950845413
 N         -1.9093334059        2.0805667642        0.3857754530
 C         -3.1090491424        2.3888779443       -0.2312367396
 C         -3.8742177662        1.6328685529       -1.1068012384
 C         -5.0283129497        2.2019696426       -1.6118663874
 C         -5.4130205485        3.4951730796       -1.2669740562
 C         -4.6414140612        4.2618460177       -0.4166275547
 C         -3.4779354230        3.7109505711        0.1034916851
 C         -2.4530719471        4.2148522216        0.9757547393
 C         -2.2767252909        5.4210880327        1.6403469493
 C         -1.1669526138        5.5754729048        2.4471228632
 C         -0.2505830891        4.5395450455        2.6087593412
 C         -0.4050301164        3.3304128875        1.9568105419
 C         -1.5028389293        3.1795596960        1.1224972249
 C          0.1360897997        0.8445348388        0.0470137263
 C          0.8195502133       -0.3658148064       -0.0232495580
 N          2.1945857705       -0.3773830972       -0.2617038034
 C          2.8512531593        0.3258848116       -1.2565711435
 C          2.3357496447        1.1447867277       -2.2503154513
 C          3.2232589952        1.7048066542       -3.1500915835
 C          4.5909416125        1.4538246721       -3.0749783700
 C          5.1066720409        0.6189518311       -2.1038119375
 C          4.2342325220        0.0446940597       -1.1889649349
 C          4.4148552290       -0.8677506195       -0.0935809709
 C          5.5306841740       -1.4745345432        0.4671844031
 C          5.3553549780       -2.3007152314        1.5593793213
 C          4.0902576515       -2.5106698863        2.1022614317
 C          2.9651615760       -1.9166796768        1.5617280945
 C          3.1318428907       -1.1073618827        0.4475532685
 C          0.1301930741       -1.5650067515        0.1326847285
 H         -0.7963203616       -3.3225751516       -1.8874633090
 H          0.0150461830       -7.2702925143       -1.1949255566
 H         -1.9127943978       -5.2399118918        1.7938764618
 H         -2.9716970705       -0.3404665504        0.6947121047
 H         -3.5790233968        0.6356845860       -1.3960234256
 H         -5.6430476905        1.6308040606       -2.2914102623
 H         -6.3231406195        3.9026828726       -1.6803573532
 H         -4.9295688953        5.2702876195       -0.1618918344
 H         -2.9986849799        6.2156922471        1.5303849360
 H         -1.0095491352        6.5056421778        2.9716578488
 H          0.5978933912        4.6804376047        3.2615718366
 H          0.3009649045        2.5283631726        2.1109720798
 H          0.6723127307        1.7709040000       -0.0838056221
 H          1.2755982702        1.3310749637       -2.3341879210
 H          2.8453253990        2.3478077056       -3.9308122374
 H          5.2515768732        1.9121000100       -3.7951645171
 H          6.1641976915        0.4089043989       -2.0556176727
 H          6.5129923734       -1.2964924590        0.0570885193
 H          6.2089991449       -2.7847088672        2.0092522246
 H          3.9847439897       -3.1480878397        2.9674968236
 H          1.9931423518       -2.0696754577        2.0067835159
 H          0.6708240788       -2.4956227307        0.0691407493
  62
  -101.607947889700       3.718763094413573E-002 !
 O         -0.1898476907       -4.3538249603        0.1723628248
 C         -0.8770149706       -3.3886643530       -0.0885320543
 C         -2.2740464225       -3.5308824885       -0.5734617926
 C         -2.7697278047       -2.8003283710       -1.6551995703
 N         -4.0130392189       -2.9260651331       -2.0780108968
 C         -4.7737985243       -3.8057102439       -1.4504180226
 N         -4.4016329943       -4.5838587883       -0.4499433575
 C         -3.1651545295       -4.4469151378       -0.0104688794
 C         -0.3881999458       -1.9929580310        0.0209388996
 C         -1.2576500896       -0.9419705554        0.2952674507
 C         -0.7645691786        0.3562595594        0.3958699013
 N         -1.6401762669        1.4107861276        0.6582567229
 C         -2.8562594952        1.6238142768        0.0296952978
 C         -3.4535382439        0.9244025863       -1.0083710205
 C         -4.6768006991        1.3707183743       -1.4716910317
 C         -5.2929779508        2.4951933654       -0.9288314588
 C         -4.6895765496        3.2142838492        0.0836330294
 C         -3.4613487857        2.7822742001        0.5661501136
 C         -2.5667936103        3.2846114079        1.5720014372
 C         -2.6228969695        4.3647751081        2.4425201669
 C         -1.5825408471        4.5543442479        3.3301934286
 C         -0.5071754251        3.6707299836        3.3700120600
 C         -0.4320009597        2.5887090286        2.5135658304
 C         -1.4566496485        2.4111854779        1.5968908519
 C          0.5935261494        0.5988132122        0.2039746505
 C          1.4659862295       -0.4553380766       -0.0559883314
 N          2.8227903149       -0.2149854836       -0.2723001222
 C          3.5680183553       -0.7283662359       -1.3203289232
 C          3.1680507312       -1.5161256038       -2.3896136560
 C          4.1218691030       -1.8665640991       -3.3266659984
 C          5.4424689495       -1.4389187768       -3.2155586947
 C          5.8402235482       -0.6311810795       -2.1690048173
 C          4.8989339645       -0.2663916299       -1.2157099943
 C          4.9557486436        0.5585126346       -0.0407391767
 C          5.9793771837        1.2599898242        0.5818824879
 C          5.6977777710        1.9487568746        1.7450367239
 C          4.4196333549        1.9269033077        2.2969915965
 C          3.3867111585        1.2341247262        1.6945486903
 C          3.6545167438        0.5660222500        0.5097497117
 C          0.9735288995       -1.7545511097       -0.1289331329
 H         -2.1394638713       -2.1136389270       -2.2072055945
 H         -5.7944027491       -3.9034082597       -1.7949755911
 H         -2.8681620760       -5.0716430762        0.8218171063
 H         -2.3052255685       -1.1262394182        0.4729744731
 H         -2.9822191320        0.0636774881       -1.4554286648
 H         -5.1602699156        0.8333962907       -2.2735753599
 H         -6.2504483217        2.8107045955       -1.3147834810
 H         -5.1563354289        4.0971752821        0.4928683237
 H         -3.4681013423        5.0357719951        2.4256515600
 H         -1.6046971444        5.3898842352        4.0132270037
 H          0.2827859795        3.8296917182        4.0886889134
 H          0.3914070123        1.8949031852        2.5745167643
 H          0.9654061750        1.6111233130        0.2254301110
 H          2.1440353759       -1.8396518530       -2.4990973284
 H          3.8343353750       -2.4836553144       -4.1648442338
 H          6.1587067655       -1.7379248278       -3.9657568804
 H          6.8589919971       -0.2836000367       -2.0913515649
 H          6.9747435955        1.2580677943        0.1646145118
 H          6.4785415497        2.5029355377        2.2436023635
 H          4.2313979014        2.4574731153        3.2184859345
 H          2.4088413054        1.2007918128        2.1479319208
 H          1.6371689978       -2.5865414469       -0.3011736356
