  102
       -157.15713962
 C         -7.0037602080       -3.1256154387       -1.5071836413
 C         -6.4850790825       -2.1914047355       -0.6255346986
 C         -5.1823723296       -1.7524863097       -0.7647857981
 C         -4.3702243179       -2.2437730156       -1.7871933458
 C         -2.9853996332       -1.7736317456       -1.9195396223
 C         -1.9598185640       -2.6700368776       -2.2655479685
 C         -0.6378286577       -2.2786341877       -2.3328165688
 C         -0.3404619979       -0.9573061839       -2.0385808542
 N          0.8673285457       -0.3205155802       -1.9435212581
 C          0.6766419513        0.9654464505       -1.5288620277
 C          1.6365937116        1.9597261745       -1.1886662229
 C          2.9827925557        1.6780877910       -0.7941623382
 C          4.0115492048        2.5941253676       -1.1145243082
 C          5.3334441401        2.3381259002       -0.8861301149
 C          5.6920352107        1.1275341695       -0.2474780506
 C          4.6788407769        0.2218365779        0.1391705906
 N          5.2678598690       -0.8207897498        0.8174497945
 C          6.6187450578       -0.6218355441        0.8810385826
 C          7.6035375087       -1.4012084498        1.4613915986
 C          8.9119838189       -0.9587286785        1.3676322477
 C          9.2282565323        0.2356622940        0.7126243633
 C          8.2551982915        1.0205604316        0.1359208781
 C          6.9245442127        0.5975824404        0.2091109500
 C          3.3214618207        0.4593072231       -0.0681101951
 C          2.3129066502       -0.4300284892        0.4601236390
 C          2.4348935961       -1.8242788847        0.3157570467
 C          1.3980067805       -2.7122951830        0.5834728992
 C          1.5947484954       -4.1488316381        0.3549410607
 C          2.8072090230       -4.7641734452        0.6645996495
 C          2.9911063652       -6.1163675328        0.4472692190
 C          1.9682452813       -6.8812481093       -0.0882832923
 C          0.7584063324       -6.2827373721       -0.3998092801
 C          0.5710703202       -4.9318396011       -0.1784158903
 C          0.1533263793       -2.2294131143        1.0051659573
 C          0.0087921239       -0.8675505580        1.2159319445
 C          1.0910099769        0.0175515416        1.0108673780
 N          0.7225051741        1.2684523174        1.4222406792
 C         -0.6068820953        1.2640441014        1.7528023433
 C         -1.4382997395        2.3084677294        2.1248996805
 C         -2.7773575399        2.0292110849        2.3096439773
 C         -3.2948982895        0.7328793700        2.1567531935
 C         -4.7382658325        0.4914160274        2.2920977772
 C         -5.2147988534       -0.6519511138        2.9314496593
 C         -6.5723871479       -0.8894541332        3.0334748214
 C         -7.4798478567        0.0076987432        2.4944356453
 C         -7.0191085036        1.1457123588        1.8534454882
 C         -5.6617451511        1.3866553808        1.7546571963
 C         -2.4429334373       -0.3198051395        1.8449586002
 C         -1.0991577548       -0.0577196589        1.6376033529
 C          1.1118966432        3.2743293906       -1.0965350788
 C         -0.2436492404        3.5520895871       -1.1144150337
 C         -0.7098005935        4.9287089519       -0.9164983222
 C         -0.0251406406        6.0041136840       -1.4826161786
 C         -0.4659271901        7.2999446266       -1.2943813283
 C         -1.5956805887        7.5487773316       -0.5321893483
 C         -2.2847102267        6.4895315959        0.0357818556
 C         -1.8501181552        5.1923800291       -0.1569735159
 C         -1.1829983200        2.5106022376       -1.2612464754
 C         -0.7094342934        1.2286294580       -1.4884845324
 C         -1.3649571726       -0.0231752560       -1.7448032907
 C         -2.6832198659       -0.4373908732       -1.6791263139
 C         -4.9029668657       -3.1857213230       -2.6660899743
 C         -6.2081171535       -3.6192686932       -2.5281897526
 H         -8.0229411971       -3.4667715312       -1.4009127671
 H         -7.0943793991       -1.8012188563        0.1768223016
 H         -4.7846327942       -1.0364659707       -0.0623221431
 H         -2.2126581318       -3.7039272673       -2.4478499524
 H          0.1425902674       -2.9860685436       -2.5720135610
 H          1.7641525477       -0.7702915405       -2.0179722082
 H          3.7367360179        3.4970012203       -1.6391237278
 H          6.0981644786        3.0357838918       -1.1888516295
 H          4.7632175946       -1.5535735035        1.2847854938
 H          7.3594041519       -2.3221812345        1.9705085389
 H          9.7041012479       -1.5447523198        1.8084476207
 H         10.2623319659        0.5434832011        0.6623445089
 H          8.5077616253        1.9416350840       -0.3668068734
 H          3.3288742533       -2.2144142455       -0.1494372848
 H          3.6061200030       -4.1820116529        1.1015640681
 H          3.9352098066       -6.5770735643        0.6997664955
 H          2.1126416740       -7.9374482005       -0.2594814536
 H         -0.0433185903       -6.8733198711       -0.8192615730
 H         -0.3687872640       -4.4692440149       -0.4384330971
 H         -0.6687358652       -2.9024336492        1.1839869656
 H          1.2838458715        2.0958086010        1.3121691748
 H         -1.0547424173        3.3116739608        2.2392137573
 H         -3.4495520330        2.8265671399        2.5909137403
 H         -4.5132337109       -1.3487246233        3.3662241709
 H         -6.9253851184       -1.7785153276        3.5361714166
 H         -8.5408013268       -0.1797536114        2.5718213152
 H         -7.7214480645        1.8459103129        1.4245359055
 H         -5.3099465569        2.2671406547        1.2366073489
 H         -2.8287497873       -1.3189941821        1.7125470482
 H          1.7959860352        4.0774766378       -0.8692675009
 H          0.8454508158        5.8169409672       -2.0941178240
 H          0.0718570228        8.1208452133       -1.7461508186
 H         -1.9379379994        8.5619670041       -0.3831119916
 H         -3.1649964505        6.6774703133        0.6336736869
 H         -2.3828723325        4.3729065208        0.3011730901
 H         -2.2401856461        2.7147407738       -1.2548794167
 H         -3.4654856075        0.2658712733       -1.4399890060
 H         -4.2961887209       -3.5614968591       -3.4771530074
 H         -6.6090800951       -4.3432954051       -3.2227874690
