70
 energy: -128.025054917774 gnorm: 0.000045402473 xtb: 6.7.1 (edcfbbe)
O           -3.58381206322367       -5.11410612935953       -1.74033591409965
C           -3.75791565486431       -4.17997547466795       -0.97016322796357
C           -5.06038276780044       -3.94412263177101       -0.31240455677562
C           -6.11644609533449       -4.81015176791609       -0.58571135535448
C           -7.35183982444253       -4.63081018725412        0.01146993981845
C           -7.54804897196346       -3.57864792351173        0.89397382539536
C           -6.50807934726721       -2.71043970895110        1.17440160090454
C           -5.25918733865192       -2.87933876372870        0.57950915506969
C           -4.18046502901999       -1.92937490280828        0.90924921987216
O           -4.34665550515084       -0.99793086758582        1.68163342702395
C           -2.87774922991220       -2.16374770336842        0.24590975706244
C           -1.83291359982086       -1.29447860070716        0.52225757944133
C           -0.58427099233762       -1.45514092100190       -0.07833593561214
N            0.44752459036170       -0.55547904740704        0.20096377203827
C            0.14147488536915        0.79460073881531        0.39540505204497
C            0.82527966012536        1.55710648536795        1.34762505598498
C            0.49878971717928        2.88267465414630        1.53532103746907
C           -0.51316549313439        3.49180583288150        0.79196183282266
C           -1.19872452439879        2.73153776276296       -0.16669988653357
C           -0.86426496741597        1.39911445985821       -0.35793283337257
C           -2.28074304304874        3.30990705400139       -0.99525770592778
O           -2.87062755046900        2.64440808642561       -1.83248160352385
C           -2.60447276398114        4.72692082882691       -0.74670839229523
C           -3.61835962484671        5.32513525002226       -1.49260045436060
C           -3.95593105509645        6.65153756722170       -1.29116371451192
C           -3.28070754076841        7.39986770408794       -0.33800331483504
C           -2.27080447216704        6.81845832191419        0.40841161622020
C           -1.92073799453852        5.48403671934383        0.21660286390961
C           -0.83427753070993        4.90800104230882        1.03668450394269
O           -0.23560143905221        5.57125009800175        1.87185252804343
C            1.76925199871624       -0.99471437874205        0.27865460655309
C            2.07425625034057       -2.26293687095173        0.78594485486970
C            3.38376622779861       -2.68505504896705        0.85356020182821
C            4.43184736487342       -1.86775527199112        0.42701418059155
C            4.13178255723353       -0.59332428053617       -0.07638872371539
C            2.81196296773080       -0.17211210618265       -0.14878042740142
C            5.19098305154740        0.32960351669360       -0.54486482229000
O            4.92562092864371        1.43860354961182       -0.98196514598818
C            6.57672675894077       -0.16577000332168       -0.44714250592653
C            7.61672200069080        0.66090150270655       -0.86822846469650
C            8.93131567286736        0.23601103631342       -0.79574175185083
C            9.22379962557384       -1.02638039844279       -0.30042295356730
C            8.20053536358091       -1.85727678719697        0.12090903000106
C            6.87276227870911       -1.44205771044145        0.05498191687777
C            5.81440380553477       -2.36470563702765        0.51671282651788
O            6.07372695903267       -3.47998966163649        0.94731792835244
C           -0.39243741968023       -2.52044743990331       -0.96434846139309
C           -1.42728423665609       -3.38902329817817       -1.23559171532437
C           -2.68125013859653       -3.23011421668318       -0.64372608374550
H           -5.94222799239472       -5.62343126405135       -1.27514962202778
H           -8.16033757518743       -5.31074771033591       -0.21037556250216
H           -8.50996582374592       -3.43517439032602        1.36228854496446
H           -6.63867631245432       -1.88460945511795        1.85852033125926
H           -2.01088513132412       -0.49141930444684        1.22257008989360
H            1.60023257703803        1.10113151640850        1.94458682972672
H            1.01424951312452        3.47684635957222        2.27517015857229
H           -1.40023190992567        0.84306149755068       -1.11342599213321
H           -4.13094113055386        4.72351438592240       -2.22907307859364
H           -4.74405390347623        7.10100478800693       -1.87600920319380
H           -3.54079994936412        8.43499507989498       -0.17685234510956
H           -1.73171435937249        7.38350668635401        1.15484853773871
H            1.28061770421869       -2.90592062038706        1.13420329109329
H            3.62781894298671       -3.65944261036785        1.24995484172568
H            2.61188271089043        0.80760230233149       -0.55751483202474
H            7.36620001694470        1.63940416589268       -1.25145734205127
H            9.72667493041595        0.88750173297509       -1.12453328130954
H           10.24791540405524       -1.36259051300161       -0.24253507224989
H            8.40656351736316       -2.84383077854199        0.51000669545052
H            0.56428479828928       -2.65235733028748       -1.44604576348037
H           -1.29119007053809       -4.20792288840578       -1.92628044529856
