  79
       -120.89603436
 C          9.2525495065        2.2258156322        0.0159981213
 C          8.1737067350        2.4686276931       -0.8189507859
 C          7.0396178185        1.6842811439       -0.7424027022
 C          6.9681676236        0.6421277182        0.1824949013
 N          5.8184338472       -0.1515175449        0.2673900408
 C          5.9373159024       -1.5241502920        0.5009039856
 C          6.9962950368       -2.2446788508       -0.0535376568
 C          7.1163058067       -3.5994769592        0.1851757328
 C          6.1843705633       -4.2591873375        0.9702006540
 C          5.1286575191       -3.5495072593        1.5196114628
 C          5.0031397296       -2.1929918920        1.2931288735
 C          4.5597446933        0.4345736785        0.1236118843
 C          4.3197257878        1.7236128472        0.6048154541
 C          3.0823126573        2.3079262155        0.4501390957
 C          2.0350261465        1.6292949302       -0.1763560257
 C          0.7192016111        2.2531024780       -0.3374761951
 C          0.6135751682        3.6329745672       -0.5932636906
 C         -0.6424676556        4.2276186283       -0.6862361337
 C         -1.7833671852        3.4803800763       -0.5662889968
 C         -1.7098181562        2.0686559169       -0.3685103469
 C         -2.9220401207        1.3637267506       -0.2739502854
 N         -4.0883205174        1.9804918045        0.0005659868
 C         -4.9953577193        1.0364901505        0.1637136950
 C         -6.3590929455        1.1983411200        0.5465686101
 C         -6.8649398021        2.4608850023        0.8587716822
 C         -8.1727906246        2.6061601246        1.2779552445
 C         -8.9726827659        1.4797947902        1.3945749135
 C         -8.4818254227        0.2245033206        1.0790722316
 C         -7.1680390000        0.0408803972        0.6336852919
 C         -6.6345080515       -1.2565493693        0.2503432553
 C         -7.4420582112       -2.3893671462        0.2017348824
 C         -6.9669354654       -3.6232460196       -0.2018849986
 C         -5.6351596601       -3.7586977525       -0.6032492808
 C         -4.7983838166       -2.6791132926       -0.5670140994
 C         -5.2491865506       -1.4065531696       -0.1256966476
 C         -4.4394904376       -0.2703995179       -0.0776478383
 N         -3.1096847975       -0.0412124668       -0.3531274481
 C         -2.1234653751       -0.9564867393       -0.7240287175
 C         -1.4347892809       -0.7853228694       -1.9280900864
 C         -0.4347072924       -1.6689094938       -2.2809736030
 C         -0.1045725645       -2.7269339243       -1.4456876109
 C         -0.7868908010       -2.8986902293       -0.2493885756
 C         -1.7905225533       -2.0238207700        0.1146578740
 C         -0.4263849781        1.4913002434       -0.2292673531
 C          2.2796789444        0.3368298245       -0.6462542414
 C          3.5176732907       -0.2502667975       -0.5058592191
 C          8.0562195114        0.4031304752        1.0223448261
 C          9.1879712121        1.1898127713        0.9338491560
 H         10.1375082837        2.8399668847       -0.0480562350
 H          8.2182370644        3.2698581583       -1.5414899258
 H          6.2030040713        1.8667092069       -1.4006182061
 H          7.7170396067       -1.7347037563       -0.6756736891
 H          7.9390874029       -4.1453571318       -0.2520114684
 H          6.2805412006       -5.3184042039        1.1528573802
 H          4.4012423606       -4.0541538751        2.1379996081
 H          4.1873590525       -1.6392197775        1.7336602886
 H          5.1111880291        2.2564018550        1.1111492204
 H          2.9122032750        3.2956041300        0.8513498186
 H          1.5050711284        4.2260282917       -0.7241265628
 H         -0.7122481826        5.2919464437       -0.8594876250
 H         -2.7619048397        3.9253159828       -0.6377218132
 H         -6.2017330597        3.3069222729        0.7700243117
 H         -8.5654146574        3.5822213556        1.5195524995
 H         -9.9936404674        1.5773017972        1.7346912822
 H         -9.1436692600       -0.6191866328        1.1915323650
 H         -8.4833808145       -2.3170338227        0.4720544736
 H         -7.6286630995       -4.4755948565       -0.2237241755
 H         -5.2712181378       -4.7150457635       -0.9491797532
 H         -3.7811922153       -2.7847436677       -0.9044703005
 H         -1.6931191489        0.0427648199       -2.5707817833
 H          0.0892206565       -1.5358345159       -3.2163540747
 H          0.6817015924       -3.4121302089       -1.7234705173
 H         -0.5286443242       -3.7169953901        0.4063546864
 H         -2.3187483789       -2.1467232927        1.0488926505
 H         -0.3353485151        0.4538719613        0.0452945954
 H          1.4943384460       -0.2023061730       -1.1539864297
 H          3.6931814170       -1.2421715723       -0.8957204230
 H          8.0019061995       -0.3965887865        1.7463939059
 H         10.0216536719        0.9980146923        1.5927759779
