  61
        -95.41570375
 C         -4.9023139927        2.8962003220       -1.9735736393
 C         -4.7068949421        1.5146045278       -1.8272548523
 C         -3.4798243239        1.0325854110       -1.4704255667
 C         -2.3998234805        1.9342754824       -1.2192064372
 C         -1.1075398606        1.5540342867       -0.8044577533
 C         -0.0192278326        2.4599385887       -1.0040352420
 C          1.2733588788        2.0967935854       -0.8089989438
 C          1.5943908369        0.7826129935       -0.3697238151
 N          2.9157922823        0.4080193081       -0.1586381888
 C          3.4939342182       -0.7806681006       -0.5587197927
 C          2.9516414281       -1.8215174916       -1.2997212271
 C          3.7632127115       -2.9003537289       -1.5946950213
 C          5.0909386996       -2.9454858854       -1.1723343609
 C          5.6480113908       -1.8990444454       -0.4611865854
 C          4.8524481426       -0.8045792912       -0.1549860530
 C          5.0954533419        0.4357493879        0.5256677533
 C          6.2082926264        0.9806530858        1.1491204031
 C          6.0882070017        2.2161415621        1.7579620339
 C          4.8716164624        2.8962572930        1.7676951616
 C          3.7494742212        2.3746270510        1.1517754857
 C          3.8716538937        1.1510367837        0.5065989695
 C          0.5504315403       -0.1013818431       -0.0756683915
 C         -0.7648678999        0.2675146735       -0.2328976910
 N         -1.7609728565       -0.5873106344        0.2498528775
 C         -1.8826174865       -1.9335983379       -0.0204173222
 C         -1.1624517571       -2.7232419746       -0.9064802957
 C         -1.5128631724       -4.0549105492       -1.0187897320
 C         -2.5616649813       -4.5935139251       -0.2760258148
 C         -3.3018451672       -3.8065572346        0.5869310814
 C         -2.9684748968       -2.4664886200        0.7164159143
 C         -3.5162182176       -1.3762063059        1.4766699724
 C         -4.5652246253       -1.2716188028        2.3781615589
 C         -4.8174687739       -0.0425135210        2.9582329357
 C         -4.0305973509        1.0679432592        2.6598472929
 C         -2.9789472520        0.9881393685        1.7674041896
 C         -2.7380429889       -0.2374252566        1.1629230714
 N         -2.6178014835        3.2664230526       -1.4324777192
 C         -3.7897954240        3.7106790729       -1.7836473049
 H         -5.8615529233        3.3121561668       -2.2313907859
 H         -5.5233377832        0.8332099084       -2.0218639485
 H         -3.2995574765       -0.0299786956       -1.4539240055
 H         -0.2719171142        3.4451497155       -1.3627627552
 H          2.0773400275        2.7822961658       -1.0293629771
 H          1.9325042740       -1.7834027473       -1.6507424736
 H          3.3623038492       -3.7232055560       -2.1675084945
 H          5.6930639656       -3.8078896576       -1.4166347392
 H          6.6822770566       -1.9268386494       -0.1532667066
 H          7.1457925908        0.4456913124        1.1610452066
 H          6.9436112377        2.6579455126        2.2469323480
 H          4.8020401759        3.8473627291        2.2737650639
 H          2.8057861815        2.8964072015        1.1887210784
 H          0.7814023608       -1.0564541253        0.3749125028
 H         -0.3642075390       -2.3061053027       -1.5007154972
 H         -0.9660015014       -4.6902705238       -1.6993026815
 H         -2.8036515830       -5.6398653370       -0.3873979078
 H         -4.1265509171       -4.2218026876        1.1461374241
 H         -5.1672136305       -2.1342143013        2.6211274884
 H         -5.6312718678        0.0606769639        3.6603268706
 H         -4.2447821745        2.0111602265        3.1395529516
 H         -2.3680546281        1.8493737783        1.5466619641
 H         -3.8651551236        4.7853816628       -1.9030332451
