  61
        -95.41570375
 C         -4.9023139927        2.8962003220       -1.9735736393
 C         -4.7068949421        1.5146045278       -1.8272548523
 C         -3.4798243239        1.0325854110       -1.4704255667
 C         -2.3998234805        1.9342754824       -1.2192064372
 C         -1.1075398606        1.5540342867       -0.8044577533
 C         -0.0192278326        2.4599385887       -1.0040352420
 C          1.2733588788        2.0967935854       -0.8089989438
 C          1.5943908369        0.7826129935       -0.3697238151
 N          2.9157922823        0.4080193081       -0.1586381888
 C          3.4939342182       -0.7806681006       -0.5587197927
 C          2.9516414281       -1.8215174916       -1.2997212271
 C          3.7632127115       -2.9003537289       -1.5946950213
 C          5.0909386996       -2.9454858854       -1.1723343609
 C          5.6480113908       -1.8990444454       -0.4611865854
 C          4.8524481426       -0.8045792912       -0.1549860530
 C          5.0954533419        0.4357493879        0.5256677533
 C          6.2082926264        0.9806530858        1.1491204031
 C          6.0882070017        2.2161415621        1.7579620339
 C          4.8716164624        2.8962572930        1.7676951616
 C          3.7494742212        2.3746270510        1.1517754857
 C          3.8716538937        1.1510367837        0.5065989695
 C          0.5504315403       -0.1013818431       -0.0756683915
 C         -0.7648678999        0.2675146735       -0.2328976910
 N         -1.7609728565       -0.5873106344        0.2498528775
 C         -1.8826174865       -1.9335983379       -0.0204173222
 C         -1.1624517571       -2.7232419746       -0.9064802957
 C         -1.5128631724       -4.0549105492       -1.0187897320
 C         -2.5616649813       -4.5935139251       -0.2760258148
 C         -3.3018451672       -3.8065572346        0.5869310814
 C         -2.9684748968       -2.4664886200        0.7164159143
 C         -3.5162182176       -1.3762063059        1.4766699724
 C         -4.5652246253       -1.2716188028        2.3781615589
 C         -4.8174687739       -0.0425135210        2.9582329357
 C         -4.0305973509        1.0679432592        2.6598472929
 C         -2.9789472520        0.9881393685        1.7674041896
 C         -2.7380429889       -0.2374252566        1.1629230714
 N         -2.6178014835        3.2664230526       -1.4324777192
 C         -3.7897954240        3.7106790729       -1.7836473049
 H         -5.8615529233        3.3121561668       -2.2313907859
 H         -5.5233377832        0.8332099084       -2.0218639485
 H         -3.2995574765       -0.0299786956       -1.4539240055
 H         -0.2719171142        3.4451497155       -1.3627627552
 H          2.0773400275        2.7822961658       -1.0293629771
 H          1.9325042740       -1.7834027473       -1.6507424736
 H          3.3623038492       -3.7232055560       -2.1675084945
 H          5.6930639656       -3.8078896576       -1.4166347392
 H          6.6822770566       -1.9268386494       -0.1532667066
 H          7.1457925908        0.4456913124        1.1610452066
 H          6.9436112377        2.6579455126        2.2469323480
 H          4.8020401759        3.8473627291        2.2737650639
 H          2.8057861815        2.8964072015        1.1887210784
 H          0.7814023608       -1.0564541253        0.3749125028
 H         -0.3642075390       -2.3061053027       -1.5007154972
 H         -0.9660015014       -4.6902705238       -1.6993026815
 H         -2.8036515830       -5.6398653370       -0.3873979078
 H         -4.1265509171       -4.2218026876        1.1461374241
 H         -5.1672136305       -2.1342143013        2.6211274884
 H         -5.6312718678        0.0606769639        3.6603268706
 H         -4.2447821745        2.0111602265        3.1395529516
 H         -2.3680546281        1.8493737783        1.5466619641
 H         -3.8651551236        4.7853816628       -1.9030332451
  61
        -95.41528613
 C         -4.8953427510        2.2216655625       -2.6857653705
 C         -4.7254801231        0.9647191524       -2.0852976546
 C         -3.5109961074        0.6104425037       -1.5721073716
 C         -2.4135506241        1.5248233297       -1.6203427143
 C         -1.1205037906        1.2674867360       -1.1272130000
 C         -0.0297801748        2.0442977098       -1.6281023992
 C          1.2641015046        1.7180151726       -1.3939198320
 C          1.5859907506        0.5925673869       -0.5822466408
 N          2.9165011781        0.2733130226       -0.3374176795
 C          3.9031101294        0.1928104601       -1.3005863649
 C          3.8021489542        0.3244457103       -2.6794020299
 C          4.9529372718        0.1685936839       -3.4290069244
 C          6.1765300940       -0.1243624964       -2.8293614514
 C          6.2778143895       -0.2888062818       -1.4602160460
 C          5.1367786978       -0.1362141352       -0.6866271376
 C          4.8707571276       -0.2562006814        0.7193828095
 C          5.6669009339       -0.5414361033        1.8185578073
 C          5.0876960564       -0.5426670528        3.0738776918
 C          3.7370026698       -0.2429919944        3.2400938196
 C          2.9230012298        0.0415582656        2.1597454868
 C          3.4891175929        0.0103961743        0.8919876908
 C          0.5447180527       -0.1043567448        0.0378672386
 C         -0.7727836870        0.2237837862       -0.1830826240
 N         -1.7678184736       -0.4431660789        0.5374626284
 C         -1.8972194909       -1.8085146207        0.6794815641
 C         -1.1732802260       -2.8301192072        0.0787845850
 C         -1.5335905079       -4.1324548994        0.3683923897
 C         -2.5921656329       -4.4193000716        1.2280201370
 C         -3.3330720318       -3.4068538933        1.8090800156
 C         -2.9920089644       -2.0912168769        1.5326797699
 C         -3.5384188579       -0.8214329472        1.9266989230
 C         -4.5930960042       -0.4479612858        2.7467370118
 C         -4.8431956033        0.8991520412        2.9288999877
 C         -4.0477272268        1.8663893540        2.3182550586
 C         -2.9898210517        1.5193515962        1.5000353316
 C         -2.7513431964        0.1682308059        1.2928611990
 N         -2.6125219223        2.7201042121       -2.2544561158
 C         -3.7709382703        3.0378153559       -2.7555726931
 H         -5.8481379377        2.5480719480       -3.0667237629
 H         -5.5515299253        0.2680322219       -2.0560669035
 H         -3.3444215447       -0.3952072261       -1.2213793683
 H         -0.2936863273        2.9023260429       -2.2280566858
 H          2.0688749033        2.3326099913       -1.7679917865
 H          2.8547213501        0.5294151584       -3.1537992894
 H          4.9016610837        0.2701072371       -4.5027283626
 H          7.0539994268       -0.2361810161       -3.4484836132
 H          7.2224236396       -0.5365169792       -0.9999815803
 H          6.7183384660       -0.7512916600        1.6926504895
 H          5.6900716665       -0.7645674622        3.9420848902
 H          3.3178576585       -0.2259819215        4.2350217678
 H          1.8859335153        0.3009978754        2.3059080671
 H          0.7784749379       -0.9136512626        0.7140745363
 H         -0.3647378536       -2.6149970778       -0.6030583055
 H         -0.9854744396       -4.9452165672       -0.0843937747
 H         -2.8416782826       -5.4496760192        1.4313892779
 H         -4.1645682905       -3.6313647156        2.4592592274
 H         -5.2016898072       -1.1961209862        3.2316442405
 H         -5.6628580064        1.2107854721        3.5587822653
 H         -4.2609238562        2.9108351677        2.4899476777
 H         -2.3743320819        2.2734751415        1.0347733078
 H         -3.8288750371        4.0203087996       -3.2094293205
  61
        -95.41514711
 C         -4.9346791459        2.8831351661       -1.8896924994
 C         -4.7507743816        1.5016838601       -1.7273083784
 C         -3.5131501411        1.0075631888       -1.4287613653
 C         -2.4085311278        1.8969228517       -1.2492187953
 C         -1.1033160358        1.5101374443       -0.8841875708
 C         -0.0161943617        2.4058382107       -1.1322107523
 C          1.2785459698        2.0468158967       -0.9429453122
 C          1.6062322428        0.7460503971       -0.4716341764
 N          2.9271197449        0.3985518157       -0.2147970785
 C          3.5392526927       -0.7913714158       -0.5527515169
 C          3.0471279992       -1.8587426374       -1.2914320519
 C          3.8874870257       -2.9324465291       -1.5171345941
 C          5.1925382230       -2.9478103835       -1.0269770354
 C          5.6987187776       -1.8772829004       -0.3134300409
 C          4.8747013095       -0.7868957561       -0.0767303978
 C          5.0647494657        0.4712934817        0.5884275588
 C          6.1313718143        1.0425286391        1.2670062521
 C          5.9593676719        2.2867876672        1.8450316559
 C          4.7370201917        2.9519709523        1.7673698718
 C          3.6605229953        2.4042629562        1.0951744685
 C          3.8355779849        1.1693980740        0.4848629023
 C          0.5665721222       -0.1387422931       -0.1621081943
 C         -0.7488481044        0.2307884841       -0.3066683217
 N         -1.7390596782       -0.6113304868        0.2139094606
 C         -1.9428913541       -1.9372179121       -0.0962447252
 C         -1.3054650029       -2.7260728760       -1.0439610276
 C         -1.7413110696       -4.0282326128       -1.1973965202
 C         -2.7884576777       -4.5370910121       -0.4315967273
 C         -3.4369422125       -3.7517809139        0.5038489220
 C         -3.0184110797       -2.4408320371        0.6760113701
 C         -3.4630082813       -1.3556139669        1.5083920451
 C         -4.4463664908       -1.2307361388        2.4787037457
 C         -4.5924128291       -0.0137262345        3.1184240692
 C         -3.7691279549        1.0667300289        2.8081330671
 C         -2.7827984063        0.9674984957        1.8460291245
 C         -2.6449176368       -0.2469701064        1.1896015577
 N         -2.6191245499        3.2272956828       -1.4814453930
 C         -3.8012755176        3.6832614263       -1.7787848255
 H         -5.9001815646        3.3085555787       -2.1050475186
 H         -5.5856922239        0.8287591991       -1.8646648011
 H         -3.3494147432       -0.0572008319       -1.4048035376
 H         -0.2727062886        3.3818781778       -1.5126406139
 H          2.0804793563        2.7260388871       -1.1899543422
 H          2.0444785984       -1.8458985373       -1.6897075531
 H          3.5276671775       -3.7756375086       -2.0875210453
 H          5.8180074885       -3.8066797447       -1.2192183157
 H          6.7156984435       -1.8834531065        0.0486828001
 H          7.0724082855        0.5197190305        1.3473315689
 H          6.7775750830        2.7475969545        2.3780572046
 H          4.6254844572        3.9115149046        2.2495776278
 H          2.7099570111        2.9137985320        1.0648358163
 H          0.8007480259       -1.0902703652        0.2948127265
 H         -0.5066259264       -2.3277922306       -1.6509114298
 H         -1.2645690545       -4.6637176340       -1.9287506335
 H         -3.1010480366       -5.5598870486       -0.5800667343
 H         -4.2574633170       -4.1452571715        1.0845739550
 H         -5.0786026904       -2.0688100260        2.7304919250
 H         -5.3518779140        0.1034636157        3.8770272049
 H         -3.9025068990        2.0005348286        3.3335370278
 H         -2.1423924880        1.8033587440        1.6109944037
 H         -3.8667889660        4.7561158574       -1.9188067367
  61
        -95.41480538
 C         -4.7979852019        2.6011573420       -2.3348168547
 C         -4.6961002038        1.9341597957       -1.1054088052
 C         -3.4799039738        1.4970380149       -0.6647045142
 C         -2.3130300367        1.6847168250       -1.4682266453
 C         -1.0229515600        1.2237728336       -1.1424011144
 C          0.1079214889        1.8528826215       -1.7465178041
 C          1.3751659417        1.6158145114       -1.3314814411
 C          1.6307080842        0.6762568504       -0.2897259500
 N          2.9436881266        0.4355879319        0.0985003590
 C          3.5643451750       -0.7936244227        0.2190116312
 C          3.0576914287       -2.0699361011        0.0135226395
 C          3.9151482544       -3.1424191402        0.1758164643
 C          5.2515087821       -2.9594319937        0.5249024512
 C          5.7721090661       -1.6908778728        0.7009639794
 C          4.9314012186       -0.5995134155        0.5419170043
 C          5.1381665166        0.8197474586        0.6098890641
 C          6.2427172726        1.6131513001        0.8825605059
 C          6.0855722396        2.9868121863        0.8893098771
 C          4.8414034937        3.5683292916        0.6510959789
 C          3.7267257133        2.7984607650        0.3767656050
 C          3.8855213250        1.4193860219        0.3310212991
 C          0.5592233287       -0.0593816833        0.2267197863
 C         -0.7310842823        0.1636446775       -0.1955304962
 N         -1.7622167548       -0.6647984281        0.2557224355
 C         -2.6746361852       -1.3034649409       -0.5642492282
 C         -2.7369032515       -1.3391381945       -1.9504878413
 C         -3.7700345030       -2.0510254708       -2.5281493322
 C         -4.7087551267       -2.7291443035       -1.7534240921
 C         -4.6271467380       -2.7296336023       -0.3735898714
 C         -3.6009003548       -2.0176607483        0.2298741669
 C         -3.2140514646       -1.8031730185        1.5976456986
 C         -3.7342941195       -2.2198620998        2.8136885196
 C         -3.1207197913       -1.7943718204        3.9774148675
 C         -2.0117143789       -0.9519005919        3.9375712014
 C         -1.4746455546       -0.5231549289        2.7383272843
 C         -2.0715624738       -0.9658073400        1.5653443209
 N         -2.4467041269        2.4046997316       -2.6224556504
 C         -3.6097965721        2.8321982661       -3.0210613470
 H         -5.7453180727        2.9205720957       -2.7347103415
 H         -5.5777196837        1.7920181908       -0.4961410619
 H         -3.3754859594        1.0987471356        0.3318003332
 H         -0.1023141118        2.5486577672       -2.5448434779
 H          2.2161591192        2.0870250773       -1.8173268615
 H          2.0335249915       -2.2274225084       -0.2865269300
 H          3.5418638107       -4.1436645850        0.0210148703
 H          5.8894850857       -3.8222188266        0.6448615544
 H          6.8127175849       -1.5474845365        0.9497731959
 H          7.2023484663        1.1637401606        1.0885449992
 H          6.9340881353        3.6220996264        1.0948881712
 H          4.7450940017        4.6431272177        0.6869208005
 H          2.7629538818        3.2563353395        0.2151824818
 H          0.7475809954       -0.8280593341        0.9619000408
 H         -2.0102733896       -0.8214124068       -2.5566316995
 H         -3.8505052334       -2.0836042739       -3.6043699423
 H         -5.5053593290       -3.2694420200       -2.2428219153
 H         -5.3442872439       -3.2713270319        0.2245976878
 H         -4.6043614175       -2.8580371816        2.8466500440
 H         -3.5101924903       -2.1092880684        4.9339908124
 H         -1.5649311742       -0.6229207300        4.8639627197
 H         -0.6280771087        0.1460972313        2.7161145030
 H         -3.6125344767        3.3609786897       -3.9671685056
  61
        -95.41476151
 C         -4.9160491287        2.4395716326       -2.5354419686
 C         -4.7935812382        1.1823546459       -1.9232455244
 C         -3.5762929279        0.7505433701       -1.4816380561
 C         -2.4238609797        1.5861334792       -1.6079159396
 C         -1.1232480973        1.2626193707       -1.1754417850
 C         -0.0231790915        1.9618460697       -1.7645696418
 C          1.2691909192        1.6167348685       -1.5468338966
 C          1.5837255802        0.5572674477       -0.6512100692
 N          2.9110120443        0.2483477431       -0.3694934668
 C          3.8980776433        0.0138927193       -1.3040343794
 C          3.8038083214       -0.0406066079       -2.6882516759
 C          4.9501333550       -0.3378172759       -3.4011096478
 C          6.1619887723       -0.5835143942       -2.7578898903
 C          6.2572753753       -0.5526495088       -1.3786041187
 C          5.1205624800       -0.2577486748       -0.6408253866
 C          4.8469100499       -0.1687815508        0.7666316039
 C          5.6294041267       -0.3045149081        1.9037374009
 C          5.0412338815       -0.1092309570        3.1399131778
 C          3.6944251340        0.2318637660        3.2491279503
 C          2.8929370577        0.3674934930        2.1312801147
 C          3.4707602510        0.1471788856        0.8881472589
 C          0.5399668155       -0.0859561560        0.0179909171
 C         -0.7769059584        0.2418132871       -0.2089555950
 N         -1.7624148267       -0.4363764151        0.5172926065
 C         -1.8765012737       -1.8064616883        0.6177173365
 C         -1.1485261086       -2.7991160068       -0.0251432873
 C         -1.4908248701       -4.1140067681        0.2252315673
 C         -2.5356735232       -4.4403316122        1.0878931268
 C         -3.2785682408       -3.4562089300        1.7133070253
 C         -2.9549925572       -2.1279776609        1.4773158485
 C         -3.5054756915       -0.8766358794        1.9215977169
 C         -4.5527579184       -0.5390643922        2.7664648681
 C         -4.8132629819        0.7991999989        2.9932445824
 C         -4.0362273802        1.7932500418        2.4018808003
 C         -2.9872616755        1.4825280432        1.5578074309
 C         -2.7372716097        0.1409624623        1.3082002356
 N         -2.5824774972        2.7783902074       -2.2596964261
 C         -3.7436144017        3.1698894650       -2.6967693209
 H         -5.8664159272        2.8285182666       -2.8589905295
 H         -5.6617127155        0.5450592390       -1.8299388199
 H         -3.4565167602       -0.2611039994       -1.1300993333
 H         -0.2812372850        2.7816997419       -2.4184029553
 H          2.0780074272        2.1713271906       -1.9984033239
 H          2.8639938985        0.1308561225       -3.1904079186
 H          4.9050262575       -0.3869268479       -4.4787761650
 H          7.0359917910       -0.8117777179       -3.3493948167
 H          7.1934505174       -0.7605162427       -0.8829021554
 H          6.6776283217       -0.5489133346        1.8212805998
 H          5.6342577749       -0.2089569909        4.0367056853
 H          3.2694077708        0.4008087733        4.2271633120
 H          1.8569377907        0.6552102936        2.2235352852
 H          0.7721865687       -0.8614774046        0.7340631558
 H         -0.3496592010       -2.5509583184       -0.7074394207
 H         -0.9385507484       -4.9052562262       -0.2595708063
 H         -2.7699708315       -5.4799772443        1.2618209622
 H         -4.0967679047       -3.7123310453        2.3692347806
 H         -5.1476190891       -1.3082355438        3.2356491723
 H         -5.6271152815        1.0826729814        3.6438903406
 H         -4.2581871542        2.8294440290        2.6087669330
 H         -2.3868670656        2.2555533505        1.1040408212
 H         -3.7598867441        4.1449171053       -3.1698360262
  61
        -95.41460167
 C         -4.7056215222        3.0591269655       -2.0540861508
 C         -4.6106513341        2.2652638366       -0.9020132554
 C         -3.4359816461        1.6363451496       -0.6011583242
 C         -2.3079326124        1.7692192242       -1.4677685486
 C         -1.0444666019        1.1947581788       -1.2400216822
 C          0.0912347990        1.7342555474       -1.9211937434
 C          1.3590558452        1.4741257600       -1.5242698440
 C          1.6060584161        0.6062085223       -0.4190165504
 N          2.9092506685        0.4077363067        0.0168435333
 C          3.5144889628       -0.7925151351        0.3413530970
 C          3.0185850791       -2.0888077994        0.2820275263
 C          3.8528421444       -3.1226323190        0.6646504395
 C          5.1605600685       -2.8866031451        1.0833557014
 C          5.6774961888       -1.6048837025        1.1028619958
 C          4.8585830440       -0.5517533688        0.7242909902
 C          5.0710796141        0.8629664863        0.6063748691
 C          6.1642397164        1.6857604975        0.8345551579
 C          6.0186497298        3.0475495236        0.6466941042
 C          4.7935245964        3.5910820688        0.2647629477
 C          3.6902890155        2.7911875817        0.0335272769
 C          3.8415640448        1.4175517768        0.1746793527
 C          0.5264934343       -0.0917615090        0.1323704371
 C         -0.7645048296        0.1353814393       -0.2863149650
 N         -1.7965047530       -0.6802743185        0.1798284185
 C         -2.7293858432       -1.3124457260       -0.6246912604
 C         -2.8729584662       -1.2786614414       -2.0047051544
 C         -3.8951763319       -2.0215389909       -2.5636992520
 C         -4.7472396896       -2.7950551731       -1.7785533657
 C         -4.5886424625       -2.8576523555       -0.4071101877
 C         -3.5715786457       -2.1170459836        0.1772237833
 C         -3.1121234215       -1.9668347721        1.5305406547
 C         -3.5296165785       -2.4948814413        2.7430361350
 C         -2.8598313232       -2.1223892946        3.8935104014
 C         -1.8024518569       -1.2163310442        3.8452940269
 C         -1.3696529485       -0.6753370347        2.6494344712
 C         -2.0138613547       -1.0732759131        1.4849227441
 N         -2.4346376882        2.5747056952       -2.5659089308
 C         -3.5559604659        3.1813626057       -2.8289034449
 H         -5.6246098515        3.5433586640       -2.3382288731
 H         -5.4609453130        2.1737656570       -0.2407468582
 H         -3.3237884545        1.1199765753        0.3385272606
 H         -0.1173046889        2.3896915714       -2.7533700125
 H          2.2036661543        1.8729543733       -2.0653105481
 H          2.0214671779       -2.2968967509       -0.0725150022
 H          3.4834360800       -4.1366909611        0.6315655177
 H          5.7796647662       -3.7199640576        1.3799151223
 H          6.6985334028       -1.4224907435        1.4020265291
 H          7.1062501627        1.2678482088        1.1558447565
 H          6.8591002219        3.7047264564        0.8126077829
 H          4.7016318483        4.6611271682        0.1535575243
 H          2.7400142801        3.2265363650       -0.2340640549
 H          0.7088548597       -0.8357645820        0.8924481137
 H         -2.2120026083       -0.6920334298       -2.6228870219
 H         -4.0330100626       -2.0055737732       -3.6344724492
 H         -5.5355741114       -3.3601299426       -2.2531572608
 H         -5.2379949131       -3.4704639258        0.1997893059
 H         -4.3628840230       -3.1799846331        2.7830797944
 H         -3.1648318501       -2.5274741871        4.8467942094
 H         -1.3119621303       -0.9273195442        4.7628196050
 H         -0.5665990873        0.0452980618        2.6278018730
 H         -3.5620329700        3.7772561964       -3.7343583437
  61
        -95.41432572
 C         -4.6912517426        3.0968356810       -1.9963651951
 C         -4.5856266478        2.3071942048       -0.8423508664
 C         -3.4136655435        1.6644116360       -0.5604608890
 C         -2.3001010620        1.7806082643       -1.4480315026
 C         -1.0412199843        1.1898868841       -1.2386053586
 C          0.0926585703        1.7039423464       -1.9416586805
 C          1.3605476735        1.4328805877       -1.5525928130
 C          1.6076909928        0.5847831881       -0.4313639326
 N          2.9115377012        0.3943943539        0.0055530390
 C          3.5153071929       -0.7951091069        0.3702993151
 C          3.0208708958       -2.0933053310        0.3491848765
 C          3.8532518885       -3.1137370716        0.7699933537
 C          5.1583066406       -2.8637228651        1.1888682843
 C          5.6748204107       -1.5818990275        1.1690639833
 C          4.8576474628       -0.5421485238        0.7519106364
 C          5.0709869839        0.8680625637        0.5905822779
 C          6.1633442521        1.6972830747        0.7988091191
 C          6.0194377581        3.0526031499        0.5679595818
 C          4.7963318810        3.5841231084        0.1635091536
 C          3.6937021811        2.7777349993       -0.0473061884
 C          3.8435592122        1.4089513231        0.1364338679
 C          0.5265921437       -0.0990206264        0.1353259377
 C         -0.7642592285        0.1324341431       -0.2811495602
 N         -1.8012419328       -0.6797248430        0.1796677028
 C         -2.7308147847       -1.3033565803       -0.6357666979
 C         -2.8715821076       -1.2511184037       -2.0155812691
 C         -3.8922732277       -1.9866196577       -2.5867826341
 C         -4.7442019625       -2.7727715482       -1.8143156708
 C         -4.5876352898       -2.8547227375       -0.4436196139
 C         -3.5735880779       -2.1199202388        0.1531179899
 C         -3.1190213071       -1.9852524681        1.5097385172
 C         -3.5409427993       -2.5276510508        2.7141811425
 C         -2.8791479010       -2.1641607806        3.8721822476
 C         -1.8249417951       -1.2538134495        3.8391390858
 C         -1.3865086412       -0.7001080370        2.6511478613
 C         -2.0227292107       -1.0885281429        1.4790169477
 N         -2.4359381294        2.5813914136       -2.5483029489
 C         -3.5550377630        3.1997561742       -2.7937475751
 H         -5.6088278912        3.5924475143       -2.2651124656
 H         -5.4244906521        2.2305681039       -0.1647534294
 H         -3.2913045945        1.1477204430        0.3779800740
 H         -0.1158105817        2.3477310884       -2.7828170982
 H          2.2049920712        1.8082947008       -2.1103478459
 H          2.0262017606       -2.3140324690       -0.0046248534
 H          3.4843011445       -4.1285105198        0.7680550843
 H          5.7751378740       -3.6863102504        1.5179876608
 H          6.6938845271       -1.3891024990        1.4684238188
 H          7.1037255088        1.2891318626        1.1370124259
 H          6.8594426179        3.7143901462        0.7169342164
 H          4.7051226389        4.6501318079        0.0182272654
 H          2.7448165976        3.2056067522       -0.3311768890
 H          0.7071240108       -0.8357107907        0.9028259204
 H         -2.2099502329       -0.6561740261       -2.6248713237
 H         -4.0283829890       -1.9547907296       -3.6574194409
 H         -5.5304792451       -3.3326328171       -2.2983740076
 H         -5.2363536778       -3.4780982951        0.1530970086
 H         -4.3718547164       -3.2161874658        2.7424723776
 H         -3.1886877001       -2.5796478092        4.8194506409
 H         -1.3420467745       -0.9711357372        4.7626587666
 H         -0.5855673243        0.0231989612        2.6410897957
 H         -3.5703123250        3.7925202558       -3.7011829025
  61
        -95.41417062
 C         -4.9295218889        2.5160328017       -2.4393417730
 C         -4.8097072119        1.2438853519       -1.8572718121
 C         -3.5869569350        0.7824967090       -1.4642517384
 C         -2.4238693725        1.6002874666       -1.6104701087
 C         -1.1194351614        1.2493947237       -1.2119043225
 C         -0.0175349040        1.9237362462       -1.8257198672
 C          1.2738601544        1.5720780539       -1.6087834091
 C          1.5845990140        0.5343881307       -0.6880344210
 N          2.9107769400        0.2390122028       -0.3805313544
 C          3.9024801559       -0.0671814317       -1.2873103597
 C          3.8173603235       -0.2131268403       -2.6652801430
 C          4.9635120567       -0.5792661538       -3.3455697457
 C          6.1655514846       -0.8009824979       -2.6757191437
 C          6.2527939264       -0.6708018395       -1.3015111400
 C          5.1165268253       -0.3047054006       -0.5958781005
 C          4.8330261091       -0.1106317298        0.7994533088
 C          5.6051732428       -0.1614022803        1.9505810620
 C          5.0072189346        0.1313356812        3.1628235027
 C          3.6600008760        0.4808136895        3.2350009229
 C          2.8683168106        0.5324468215        2.1032428859
 C          3.4583013281        0.2216570531        0.8855089621
 C          0.5395144688       -0.0987616914       -0.0122528630
 C         -0.7757286951        0.2291535331       -0.2453816116
 N         -1.7629436262       -0.4483970914        0.4811704837
 C         -1.8965209228       -1.8176151504        0.5532469981
 C         -1.1988929145       -2.8043505857       -0.1307868812
 C         -1.5600057586       -4.1192479992        0.0913558560
 C         -2.5920794686       -4.4498920398        0.9677484333
 C         -3.3015611710       -3.4705927446        1.6382209066
 C         -2.9593350182       -2.1422465653        1.4309463578
 C         -3.4757157317       -0.8926304398        1.9197227289
 C         -4.4884654606       -0.5565327487        2.8061553629
 C         -4.7165174284        0.7805808435        3.0723164722
 C         -3.9438256381        1.7751713489        2.4761153977
 C         -2.9282533561        1.4661697176        1.5915882712
 C         -2.7075061932        0.1263018697        1.3083001386
 N         -2.5811929319        2.8035521944       -2.2417517648
 C         -3.7489695900        3.2256842804       -2.6301473876
 H         -5.8829438545        2.9301173381       -2.7198976645
 H         -5.6858512823        0.6204185981       -1.7473307080
 H         -3.4724918074       -0.2380880417       -1.1372662796
 H         -0.2719608306        2.7325399648       -2.4944961081
 H          2.0847771078        2.1064322064       -2.0807974197
 H          2.8839079495       -0.0586333011       -3.1847497503
 H          4.9257714387       -0.7035861670       -4.4174107754
 H          7.0390401642       -1.0882613441       -3.2417404382
 H          7.1821549517       -0.8578117289       -0.7850136757
 H          6.6534181270       -0.4135810152        1.8966869841
 H          5.5933153059        0.1025714421        4.0691735083
 H          3.2272834545        0.7230576783        4.1941162827
 H          1.8305261793        0.8230085305        2.1624892341
 H          0.7697627444       -0.8656457963        0.7141433457
 H         -0.4087957578       -2.5497907587       -0.8210551582
 H         -1.0342264027       -4.9069146684       -0.4274693321
 H         -2.8439077460       -5.4893682219        1.1161411542
 H         -4.1097141252       -3.7306646469        2.3049629623
 H         -5.0811973337       -1.3257758307        3.2779436569
 H         -5.5023414010        1.0625891461        3.7571475432
 H         -4.1422636349        2.8100262381        2.7116480321
 H         -2.3306886066        2.2384138503        1.1325580022
 H         -3.7624073424        4.2091031207       -3.0856204670
  61
        -95.41392988
 C         -4.6897519208        3.0976014607       -1.9170499852
 C         -4.5598884513        2.3127988828       -0.7627274017
 C         -3.3829148337        1.6685046391       -0.5057744488
 C         -2.2909804308        1.7777983115       -1.4206792745
 C         -1.0333282588        1.1758156404       -1.2390802241
 C          0.0942776326        1.6757515876       -1.9617974782
 C          1.3643616283        1.3995645058       -1.5834752396
 C          1.6184762365        0.5652887773       -0.4525246439
 N          2.9230320860        0.3863445708       -0.0143339235
 C          3.5219280946       -0.7907969283        0.3973957186
 C          3.0299825396       -2.0902622884        0.4105181224
 C          3.8542958740       -3.0942925010        0.8832639234
 C          5.1507569113       -2.8285855954        1.3187507067
 C          5.6680622244       -1.5483951957        1.2596522099
 C          4.8587169418       -0.5251625772        0.7897443041
 C          5.0764148126        0.8777847931        0.5802987388
 C          6.1695573517        1.7104080180        0.7701462066
 C          6.0334333536        3.0567172557        0.4883906856
 C          4.8159353589        3.5766889941        0.0535502033
 C          3.7124051087        2.7667557302       -0.1385265955
 C          3.8553294965        1.4044706540        0.0933831450
 C          0.5403255523       -0.1156304694        0.1247935242
 C         -0.7521516925        0.1141476948       -0.2862592770
 N         -1.7901088080       -0.6997841267        0.1675324025
 C         -2.7341729422       -1.2917941164       -0.6550196282
 C         -2.8717612965       -1.2225142708       -2.0345937668
 C         -3.9121192958       -1.9232242633       -2.6138094866
 C         -4.7857996126       -2.6937580066       -1.8500250324
 C         -4.6304166058       -2.7967965966       -0.4805966360
 C         -3.5967183641       -2.0966953371        0.1240339312
 C         -3.1379486520       -1.9904086570        1.4817501895
 C         -3.5727690267       -2.5384876728        2.6788988496
 C         -2.9015474502       -2.2077552910        3.8412649725
 C         -1.8252669361       -1.3234638923        3.8195586586
 C         -1.3745286345       -0.7635310728        2.6390094565
 C         -2.0204256432       -1.1197606908        1.4619729006
 N         -2.4472863308        2.5774700936       -2.5186296323
 C         -3.5709774757        3.1972844119       -2.7394724733
 H         -5.6125316965        3.5935011329       -2.1669331589
 H         -5.3831178369        2.2401406130       -0.0657491395
 H         -3.2398064778        1.1558985341        0.4319895662
 H         -0.1194502287        2.3128218383       -2.8066642026
 H          2.2049327096        1.7600038097       -2.1565407575
 H          2.0438034760       -2.3261978327        0.0433416818
 H          3.4853473869       -4.1086818205        0.9103307082
 H          5.7610006313       -3.6383051817        1.6897271620
 H          6.6819619242       -1.3442457609        1.5688633139
 H          7.1045880876        1.3114064519        1.1331325573
 H          6.8744430102        3.7206800325        0.6210499934
 H          4.7294352563        4.6370577682       -0.1306689890
 H          2.7678628794        3.1892143132       -0.4436517996
 H          0.7248325572       -0.8487164360        0.8942590228
 H         -2.1934371164       -0.6404743767       -2.6379002065
 H         -4.0466089628       -1.8761609514       -3.6840956838
 H         -5.5875954629       -3.2256756697       -2.3400932929
 H         -5.2953114994       -3.4097737658        0.1090189528
 H         -4.4202171446       -3.2068883357        2.6981061732
 H         -3.2208345879       -2.6284044387        4.7829986623
 H         -1.3352092470       -1.0650844429        4.7464167374
 H         -0.5572159343       -0.0588271416        2.6396657605
 H         -3.6071623202        3.7853883205       -3.6493025695
