  86
       -122.92102836
 C          0.3985922895       -2.3783925413       -2.5097567889
 C         -0.7009869323       -3.3939201991       -2.2210037593
 C         -0.1532586840       -4.7730836042       -1.8444389077
 C          0.4513213713       -4.8162499708       -0.4398161467
 C         -0.6223602627       -4.8125848881        0.6592496201
 C         -0.9409171720       -6.2375041220        1.1212176050
 C         -2.2374008486       -6.3453843548        1.9166289392
 C         -0.1873060598       -3.9333173054        1.8469826138
 N         -0.0806637082       -2.5566764343        1.4627983762
 C          1.0780735347       -1.8791376824        1.1812261087
 C          2.3942185616       -2.2772396448        1.3189885577
 C          3.4009170595       -1.3822276419        0.9399279824
 C          3.0791908381       -0.1098872651        0.4531366867
 N          4.1042003040        0.7610045849        0.0952744320
 C          4.1940058354        2.0904809362        0.4609242157
 C          3.3590354820        2.8392125347        1.2750633588
 C          3.7040616751        4.1613464846        1.5161212602
 C          4.8580961426        4.7176873570        0.9734716524
 C          5.7127234580        3.9670329699        0.1857627420
 C          5.3857098707        2.6409392910       -0.0723194693
 C          6.0323516518        1.5880862762       -0.8004604713
 C          7.2001304023        1.5207047098       -1.5514218021
 C          7.5227404650        0.3241377582       -2.1665481148
 C          6.6926574854       -0.7873027964       -2.0591322471
 C          5.5222538251       -0.7434567825       -1.3152062552
 C          5.2099810566        0.4418330057       -0.6687551860
 C          1.7518966615        0.3071101016        0.3190286632
 C          0.7361339081       -0.5842382413        0.6796670735
 C         -0.6787081716       -0.5111788313        0.6673875638
 C         -1.5940749106        0.4756447175        0.2880813992
 C         -2.9585388667        0.1959397838        0.4104427389
 N         -3.8847947059        1.1653393609        0.0344368712
 C         -5.0075578761        0.9579879613       -0.7427713816
 C         -5.4344842002       -0.1933631949       -1.3852261007
 C         -6.5930667029       -0.1202751966       -2.1448656218
 C         -7.3005448137        1.0712086071       -2.2709635338
 C         -6.8621761962        2.2321845401       -1.6594044499
 C         -5.7033689784        2.1830512719       -0.8933333601
 C         -4.9591294144        3.1680970773       -0.1634151135
 C         -5.1464927332        4.5237103752        0.0797949659
 C         -4.2275585131        5.1863884870        0.8739206492
 C         -3.1468175678        4.5154874583        1.4377196862
 C         -2.9410897804        3.1623290648        1.2115568005
 C         -3.8397041608        2.4993843467        0.3906737493
 C         -3.4140035334       -1.0313570829        0.9038785154
 C         -2.5075089481       -2.0224659681        1.2977314860
 C         -1.1580058208       -1.7596736067        1.1671320494
 H          1.0331213469       -2.7219963559       -3.3238544085
 H          1.0189466087       -2.2104717027       -1.6353097077
 H         -0.0389888757       -1.4246701252       -2.7952786336
 H         -1.3323496925       -3.0101591131       -1.4194958358
 H         -1.3250983986       -3.4980731658       -3.1114795374
 H         -0.9563092654       -5.5105801251       -1.9108450847
 H          0.6107932063       -5.0543162323       -2.5719248687
 H          1.0658359323       -5.7131695820       -0.3374656976
 H          1.1093075863       -3.9579786593       -0.3243548828
 H         -1.5362950185       -4.3762461221        0.2509595907
 H         -1.0265236594       -6.8697967722        0.2355652001
 H         -0.1111759702       -6.6194391682        1.7204353591
 H         -2.1750960137       -5.8062620367        2.8588977550
 H         -2.4524997687       -7.3868277322        2.1428756801
 H         -3.0701775259       -5.9433871003        1.3430842843
 H          0.7777566198       -4.2725124263        2.2252291743
 H         -0.9255424916       -4.0114622081        2.6489236809
 H          2.6643684161       -3.2400691195        1.7247287642
 H          4.4349131550       -1.6524009075        1.0747911007
 H          2.4765030069        2.4076167049        1.7207634093
 H          3.0662723537        4.7664931780        2.1425056581
 H          5.0937683628        5.7506380764        1.1821435975
 H          6.6174547926        4.3959827230       -0.2167193133
 H          7.8351641078        2.3870260121       -1.6548811327
 H          8.4276595305        0.2515031306       -2.7512971169
 H          6.9599252168       -1.7013016650       -2.5676728109
 H          4.8719580771       -1.6020935897       -1.2555882678
 H          1.5205953426        1.2675449116       -0.1097057303
 H         -1.2628191188        1.4046925652       -0.1444170250
 H         -4.8788124559       -1.1149832656       -1.3100408678
 H         -6.9486729922       -1.0053569084       -2.6505367847
 H         -8.2005183605        1.0890946477       -2.8674636905
 H         -7.4013767437        3.1594518212       -1.7776051753
 H         -5.9950482267        5.0427967113       -0.3385502852
 H         -4.3548646226        6.2403293589        1.0715030641
 H         -2.4568859147        5.0551240361        2.0687015233
 H         -2.1157068909        2.6430014453        1.6729225729
 H         -4.4718130996       -1.1917944517        1.0306360108
 H         -2.8731834806       -2.9471508386        1.7153721807
