  74
       -122.96019308
 N         -3.4685849777       -5.1920857739        1.2562706628
 C         -2.4815117759       -4.5923564742        1.1775960772
 C         -1.2679580489       -3.9286034882        1.0971309640
 C         -0.0543003952       -4.6445842834        1.2771355948
 C          1.1468205373       -4.0441414197        1.0768254097
 C          1.1898335967       -2.6667773055        0.6762138912
 C          2.3896951956       -1.9228862275        0.4809516560
 C          2.3085658350       -0.5396555404        0.1812647491
 C          3.4281276790        0.2192748097       -0.0161602505
 C          4.6996801762       -0.3659618390        0.0673471706
 N          5.8643710792        0.4082716993       -0.1379280692
 C          6.7084898869        0.1380070447       -1.2050739028
 C          6.4108447981       -0.8368378958       -2.1561769481
 C          7.2778820866       -1.0867367657       -3.2038109771
 C          8.4531267825       -0.3658922077       -3.3310685256
 C          8.7515799609        0.6281060207       -2.4135576852
 C          7.8875033077        0.8866826204       -1.3632706526
 O          8.2249459943        1.9010207398       -0.5107272037
 C          7.3707699087        2.1735623806        0.5215281515
 C          7.7201821660        3.2059919834        1.3752252413
 C          6.9147645960        3.5152331379        2.4589890120
 C          5.7683335675        2.7758451792        2.6946300170
 C          5.4117204004        1.7431109194        1.8468674820
 C          6.1936763329        1.4352360384        0.7346549423
 C          4.8056543445       -1.7311848526        0.3546589766
 C          3.6829908226       -2.4889209471        0.5631641663
 N          0.0295705371       -2.0152162777        0.5112677974
 C         -1.1432593473       -2.5494125554        0.7192401080
 C         -2.3006164034       -1.6874731310        0.5041252192
 C         -3.4857854249       -1.8381321348        1.2301085916
 C         -4.5574244212       -1.0011476314        1.0058623665
 C         -4.4722200759        0.0041232042        0.0463443875
 N         -5.5813932504        0.8517941030       -0.1970904166
 C         -6.7619546707        0.3347458746       -0.7170163508
 C         -6.9012286824       -1.0096612645       -1.0524073423
 C         -8.0939129485       -1.4875587145       -1.5658185768
 C         -9.1656902814       -0.6349014513       -1.7639130226
 C         -9.0370461291        0.7106153831       -1.4606334371
 C         -7.8470532985        1.1967835206       -0.9473772232
 O         -7.7792066318        2.5402242911       -0.6936429456
 C         -6.6126199049        3.0316421134       -0.1762337962
 C         -6.5624471925        4.3883025722        0.0938697959
 C         -5.4198701040        4.9474037256        0.6426925709
 C         -4.3348439197        4.1402272336        0.9350248985
 C         -4.3763730200        2.7833844171        0.6668635809
 C         -5.5057551494        2.2080650909        0.0897729667
 C         -3.2901656613        0.1760521594       -0.6723897313
 C         -2.2193594867       -0.6563650256       -0.4395716058
 H         -0.1131225070       -5.6813947284        1.5798499104
 H          2.0641190665       -4.5824798765        1.2490163096
 H          1.3249040571       -0.1022121820        0.1062674665
 H          3.3481661039        1.2700021138       -0.2575482377
 H          5.4902172455       -1.3913271573       -2.0704333039
 H          7.0277453412       -1.8483850732       -3.9257791255
 H          9.1316449573       -0.5642861180       -4.1453444264
 H          9.6485696361        1.2205913270       -2.4957498393
 H          8.6298495752        3.7490727552        1.1753027776
 H          7.1916654726        4.3218228791        3.1189936704
 H          5.1454716659        2.9975753142        3.5471877192
 H          4.5268660313        1.1604071176        2.0460213637
 H          5.7880116815       -2.1766474001        0.4293008034
 H          3.8014187674       -3.5352045240        0.7962520932
 H         -3.5614793707       -2.6009347814        1.9882355647
 H         -5.4668866791       -1.1155653866        1.5772419655
 H         -6.0691812018       -1.6809378117       -0.9130495626
 H         -8.1784239032       -2.5341265231       -1.8127620625
 H        -10.0964667744       -1.0077343641       -2.1608068548
 H         -9.8471282473        1.4044974302       -1.6180007714
 H         -7.4313372543        4.9862559801       -0.1293270604
 H         -5.3870494827        6.0054335404        0.8485362775
 H         -3.4471686038        4.5628989733        1.3792943321
 H         -3.5316881426        2.1595173620        0.9114903286
 H         -3.2294979371        0.9561534759       -1.4177082648
 H         -1.3028145454       -0.5367624098       -0.9963652537
