  65
  -106.489695810000       0.436273870545237      !
 C          2.9977910654        4.9933522730       -0.5244585774
 C          1.6333254140        5.2635990009       -0.6256986331
 C          0.6857096782        4.3465043274       -0.2077754755
 C          1.1335408226        3.1369853039        0.3065434488
 C          2.5208742476        2.8726053435        0.4508521071
 C          3.4525367955        3.8071827764        0.0222009909
 C          2.6288125950        1.5844966789        1.0694894469
 C          3.7057063400        0.7891795920        1.4359649203
 C          3.4551683046       -0.4580519068        1.9789277678
 C          2.1529935081       -0.9253952216        2.1332557996
 C          1.0631151284       -0.1465159486        1.7785416153
 C          1.3047480330        1.1190386274        1.2661070656
 N          0.4108633957        2.0709878701        0.8032209436
 C         -0.9628658713        1.8918445852        0.7240340131
 C         -1.6588710401        2.1923177287       -0.4681033591
 C         -2.9673786449        1.8212126023       -0.6093583833
 C         -3.6399308217        1.1655063849        0.4389556758
 C         -2.9852966813        0.9852129503        1.6722691591
 C         -1.6723212596        1.3387518052        1.8124811854
 S         -4.9160902618        0.0119811655        0.0036610367
 O         -5.6473254443        0.4503350805       -1.1544428805
 O         -5.6470147497       -0.4205631195        1.1641465667
 C         -3.6503522545       -1.1513022479       -0.4355658271
 C         -2.9981751153       -0.9760152296       -1.6709107523
 C         -1.6876006705       -1.3367933195       -1.8143656363
 C         -0.9779783668       -1.8920699657       -0.7270516002
 C         -1.6726292350       -2.1884300153        0.4669751361
 C         -2.9787197070       -1.8104154104        0.6113353430
 N          0.3949935791       -2.0759749173       -0.8081706225
 C          1.2915929710       -1.1269909054       -1.2721511957
 C          1.0533950410        0.1378436968       -1.7881088725
 C          2.1455499959        0.9143708675       -2.1410690823
 C          3.4466048863        0.4450081101       -1.9828191982
 C          3.6936482824       -0.8017930488       -1.4371914724
 C          2.6144407230       -1.5943480532       -1.0714318834
 C          2.5028968975       -2.8811091427       -0.4505602029
 C          3.4319387346       -3.8164044700       -0.0176393178
 C          2.9737842125       -5.0002167303        0.5315140154
 C          1.6085590927       -5.2683533677        0.6289896064
 C          0.6635276303       -4.3500944834        0.2075577212
 C          1.1147686976       -3.1425186424       -0.3083701969
 H          3.7072999331        5.7315651298       -0.8667356569
 H          1.3102363804        6.2104283740       -1.0304797018
 H         -0.3667691304        4.5771482794       -0.2632529101
 H          4.5090706265        3.6101182864        0.1198605580
 H          4.7164045943        1.1398570033        1.2957986227
 H          4.2787090969       -1.0913747281        2.2716544979
 H          1.9889672984       -1.9147578788        2.5328569903
 H          0.0578080078       -0.5234009551        1.8830373988
 H         -1.1283895400        2.6513237907       -1.2886292646
 H         -3.5039822655        1.9885664224       -1.5295630996
 H         -3.5452012180        0.5547118596        2.4871332291
 H         -1.1669798129        1.2250287340        2.7599690104
 H         -3.5583791378       -0.5444679171       -2.4849619738
 H         -1.1846527672       -1.2280971012       -2.7636583084
 H         -1.1422994699       -2.6490646050        1.2866793113
 H         -3.5141944563       -1.9752568646        1.5326483493
 H          0.0491539614        0.5174475120       -1.8929853505
 H          1.9841904294        1.9033617867       -2.5427595793
 H          4.2719366986        1.0761121737       -2.2752811573
 H          4.7033925975       -1.1542184230       -1.2944355195
 H          4.4890368606       -3.6217873617       -0.1140446303
 H          3.6812366752       -5.7389861367        0.8770647856
 H          1.2828455171       -6.2137984183        1.0349877389
 H         -0.3895436513       -4.5784043378        0.2616038784
  65
  -106.489139810000       0.242236339171889      !
 C          3.5689921822        1.1932517140       -1.5517087533
 C          2.3136365745        0.7306765570       -1.9386280512
 C          1.1723476470        1.0797211332       -1.2342787496
 C          1.3156789928        1.9184647937       -0.1382038212
 C          2.5955826700        2.3684974546        0.2797926701
 C          3.7235324888        2.0070016516       -0.4424186967
 C          2.3886368198        3.1292224084        1.4778225743
 C          3.2342180526        3.8252613663        2.3307651267
 C          2.6838486826        4.4935259139        3.4100071599
 C          1.3083194859        4.4891738745        3.6370293091
 C          0.4452024560        3.7985544050        2.8040435760
 C          0.9933797998        3.1015173318        1.7369103164
 N          0.3612271695        2.3676704408        0.7520436422
 C         -0.9861688981        2.0326841716        0.7097137790
 C         -1.7045311280        2.1233897200       -0.5012253517
 C         -2.9878274263        1.6569634833       -0.5770118718
 C         -3.5942532734        1.0715707744        0.5486387330
 C         -2.9071494089        1.0506021572        1.7745810375
 C         -1.6320701170        1.5391026448        1.8624851347
 S         -4.8334037314       -0.1688251988        0.2794942376
 O         -5.6436210387        0.1358408024       -0.8693075181
 O         -5.4829148917       -0.5246550624        1.5125934001
 C         -3.5499401679       -1.3208399872       -0.1353579112
 C         -3.0116855068       -1.2571113117       -1.4321062460
 C         -1.7243421941       -1.6560925747       -1.6682178539
 C         -0.9171691603       -2.0986413306       -0.5994379938
 C         -1.4831605602       -2.2338328194        0.6858416602
 C         -2.7785593094       -1.8577053923        0.9107170291
 N          0.4363327799       -2.3395593095       -0.7980939882
 C          1.4535764206       -1.8213149829       -0.0222379491
 C          1.3797425528       -0.9899001450        1.0862293763
 C          2.5676283367       -0.5596220896        1.6556268655
 C          3.7990316315       -0.9355179957        1.1246684851
 C          3.8807458317       -1.7414537776        0.0020298516
 C          2.7048694109       -2.1834457431       -0.5866335216
 C          2.4144630351       -2.9618360497       -1.7556445127
 C          3.2022972925       -3.6012079213       -2.7030169048
 C          2.5788721951       -4.3109944459       -3.7138372183
 C          1.1893759444       -4.4032132024       -3.7805449511
 C          0.3822401487       -3.7703135381       -2.8511520293
 C          1.0001008023       -3.0321892531       -1.8519160672
 H          4.4359924868        0.9020308831       -2.1249094751
 H          2.2295619788        0.0791234408       -2.7950593029
 H          0.2041869671        0.6995211571       -1.5228638032
 H          4.7010210826        2.3483742488       -0.1384285558
 H          4.2977672464        3.8477857757        2.1490395319
 H          3.3263497266        5.0403825742        4.0836083970
 H          0.9077896341        5.0409134961        4.4735008313
 H         -0.6206099198        3.8186367976        2.9709907425
 H         -1.2324131685        2.5890326480       -1.3535605889
 H         -3.5578950716        1.7167005564       -1.4902170739
 H         -3.4057967777        0.6193740349        2.6277534530
 H         -1.0851870809        1.4868615255        2.7921910097
 H         -3.6342482598       -0.8655826281       -2.2205991651
 H         -1.2933882811       -1.5705928311       -2.6546813972
 H         -0.8849034990       -2.6623655020        1.4762158966
 H         -3.2338072990       -1.9522955893        1.8835089805
 H          0.4272831146       -0.6766600942        1.4860812169
 H          2.5378460170        0.0885607982        2.5181990458
 H          4.7040422921       -0.5820025478        1.5948692410
 H          4.8379575673       -2.0147093991       -0.4145272492
 H          4.2787120161       -3.5495840180       -2.6449618427
 H          3.1758256951       -4.8156270773       -4.4585598839
 H          0.7343107682       -4.9850567217       -4.5672729522
 H         -0.6917356503       -3.8650538999       -2.8940600968
  65
  -106.489107140000       0.234005035010828      !
 C          3.7026591683        1.5974958222       -0.5779428617
 C          2.4574078631        1.4800197735       -1.1904033109
 C          1.2887044226        1.4849982610       -0.4458190362
 C          1.3950785159        1.6271733204        0.9304920993
 C          2.6625758397        1.7175783590        1.5637671284
 C          3.8185837213        1.7115806914        0.7968766197
 C          2.4105289642        1.7627233355        2.9749723164
 C          3.2268118393        1.8658927499        4.0929766589
 C          2.6358972374        1.9147513572        5.3430988065
 C          1.2498557441        1.8785913119        5.4886194199
 C          0.4150326408        1.7705386391        4.3898268520
 C          1.0020771531        1.6913200029        3.1352101870
 N          0.4051556685        1.6106028317        1.8920637637
 C         -0.9485204738        1.4295382559        1.6377368770
 C         -1.5892134896        2.1768221948        0.6269861965
 C         -2.8817421755        1.8972871335        0.2787461297
 C         -3.5754153975        0.8538362986        0.9171178456
 C         -2.9641030211        0.1598522498        1.9753830343
 C         -1.6796515871        0.4525034959        2.3452433983
 S         -4.8419122708        0.0115731783        0.0045808398
 O         -5.5720609534        0.9163545030       -0.8423772587
 O         -5.5748891159       -0.8898594893        0.8526654143
 C         -3.5807151052       -0.8364447371       -0.9099985506
 C         -2.9680457432       -0.1453107802       -1.9693767867
 C         -1.6857197597       -0.4440335650       -2.3416001106
 C         -0.9579213003       -1.4245348225       -1.6355120883
 C         -1.6001685478       -2.1686402196       -0.6234107519
 C         -2.8907757055       -1.8830245214       -0.2727723963
 N          0.3943323733       -1.6122364043       -1.8926279957
 C          0.9882068956       -1.6961082782       -3.1370424234
 C          0.3981143205       -1.7724146264       -4.3904259244
 C          1.2300213016       -1.8850109922       -5.4909375288
 C          2.6161581704       -1.9283212253       -5.3483565978
 C          3.2099912452       -1.8821682949       -4.0994919326
 C          2.3966205626       -1.7746253351       -2.9797764649
 C          2.6518762839       -1.7305220651       -1.5691019811
 C          3.8095111576       -1.7301603478       -0.8046959484
 C          3.6970689095       -1.6153032459        0.5703868666
 C          2.4536801819       -1.4915499955        1.1855007253
 C          1.2834062147       -1.4906621400        0.4433557058
 C          1.3861804652       -1.6335924277       -0.9331578015
 H          4.5919993243        1.5905112063       -1.1896798962
 H          2.4022875561        1.3709004295       -2.2628754739
 H          0.3268869303        1.3695411846       -0.9219312882
 H          4.7874704600        1.7848374875        1.2663390305
 H          4.2995468989        1.9142311620        3.9852102242
 H          3.2552223723        1.9956873722        6.2236822840
 H          0.8190672601        1.9421380069        6.4760117860
 H         -0.6575664791        1.7661894123        4.5069501948
 H         -1.0503564593        2.9855184705        0.1559260330
 H         -3.3935139338        2.4552236614       -0.4889359369
 H         -3.5281530913       -0.6184679322        2.4638368862
 H         -1.1912953591       -0.1066402347        3.1294900512
 H         -3.5293521723        0.6356301948       -2.4568843296
 H         -1.1962831128        0.1125728373       -3.1270634766
 H         -1.0642133784       -2.9797359123       -0.1532278563
 H         -3.4038230993       -2.4387256492        0.4956527496
 H         -0.6746865913       -1.7627851285       -4.5052527273
 H          0.7968195571       -1.9467725666       -6.4773473107
 H          3.2332036259       -2.0123245491       -6.2302675178
 H          4.2826850234       -1.9355812408       -3.9940287627
 H          4.7769901767       -1.8084789308       -1.2761966483
 H          4.5876893886       -1.6127291411        1.1802173640
 H          2.4013749005       -1.3821305098        2.2580277921
 H          0.3231947886       -1.3705762106        0.9214875906
  65
  -106.487586490000       4.681476509085432E-002 !
 C          3.8762197989        1.5472355751       -0.2508476741
 C          2.6789523465        1.3655425376       -0.9381541237
 C          1.4593778580        1.4280424332       -0.2844016352
 C          1.4646938075        1.7098365856        1.0753751423
 C          2.6824484161        1.8853488145        1.7852920788
 C          3.8910328947        1.8042438410        1.1102248851
 C          2.3260407646        2.1042689783        3.1585918734
 C          3.0537063774        2.3676483159        4.3110579156
 C          2.3680534100        2.5797090400        5.4943419820
 C          0.9752468083        2.5453213370        5.5387299015
 C          0.2276007100        2.2776255538        4.4050028250
 C          0.9100656946        2.0389428534        3.2209239545
 N          0.4079112436        1.7945547810        1.9572346748
 C         -0.9263294010        1.5686660982        1.6387994419
 C         -1.5134821232        2.1991696272        0.5219843072
 C         -2.7895966627        1.8821178048        0.1454993109
 C         -3.5160447741        0.9129039722        0.8596586989
 C         -2.9534145208        0.3269294054        2.0057114356
 C         -1.6888723930        0.6633208920        2.4054410588
 S         -4.7800870223        0.0063543166        0.0098319620
 O         -5.5148173210        0.8442101657       -0.9002018070
 O         -5.5092637988       -0.8280327989        0.9274938306
 C         -3.5285851431       -0.9051010189       -0.8520352457
 C         -2.9633748408       -0.3096662962       -1.9930195582
 C         -1.7006346787       -0.6464839566       -2.3965495954
 C         -0.9424041243       -1.5669762407       -1.6429755870
 C         -1.5343121092       -2.2091677055       -0.5337929950
 C         -2.8067109408       -1.8870193792       -0.1505067774
 N          0.3894567089       -1.7970769244       -1.9634877923
 C          0.8952998490       -2.0074715486       -3.2325522154
 C          0.2179466733       -2.1945931773       -4.4286641961
 C          0.9694836830       -2.4257343001       -5.5681132166
 C          2.3615376171       -2.4770448007       -5.5175297085
 C          3.0419458153       -2.3212218520       -4.3226070524
 C          2.3101796133       -2.0942369687       -3.1649016448
 C          2.6620631335       -1.9267111655       -1.7837237184
 C          3.8685777283       -1.8851139024       -1.1010946499
 C          3.8515526179       -1.6610377694        0.2656244407
 C          2.6541772450       -1.4722838142        0.9512159572
 C          1.4366936681       -1.5012496240        0.2911219024
 C          1.4432056939       -1.7532082730       -1.0745353119
 H          4.8083356388        1.4854329724       -0.7915223758
 H          2.7026223380        1.1548785932       -1.9962643807
 H          0.5349012022        1.2627809892       -0.8162424917
 H          4.8228909140        1.9339238195        1.6390828466
 H          4.1314508751        2.4154050424        4.2803515870
 H          2.9178437314        2.7891762454        6.3995906244
 H          0.4697395876        2.7383393518        6.4724471594
 H         -0.8508992078        2.2742640131        4.4387514104
 H         -0.9503945794        2.9537040318       -0.0069807386
 H         -3.2631435802        2.3564890026       -0.6989332157
 H         -3.5409108440       -0.4006224996        2.5424341974
 H         -1.2380566370        0.1920495391        3.2662187329
 H         -3.5484044832        0.4252686873       -2.5222179172
 H         -1.2477281497       -0.1645101932       -3.2501692190
 H         -0.9771021398       -2.9765498853       -0.0172984212
 H         -3.2811527397       -2.3662089289        0.6908149912
 H         -0.8601496801       -2.1795690515       -4.4695115805
 H          0.4673307567       -2.5752514875       -6.5115385383
 H          2.9146036224       -2.6544522906       -6.4276147739
 H          4.1188806980       -2.3822726720       -4.2873904289
 H          4.8005438567       -2.0180080096       -1.6289425343
 H          4.7818718202       -1.6290643684        0.8119907640
 H          2.6763051215       -1.2827355085        2.0133150192
 H          0.5134214308       -1.3301164392        0.8231137404
  65
  -106.487453520000       4.066999018119202E-002 !
 C          3.8776101316        1.6441585195       -0.2456219087
 C          2.6838238785        1.4326094869       -0.9304322455
 C          1.4642054336        1.4664930421       -0.2744592466
 C          1.4660632946        1.7448692521        1.0860671914
 C          2.6808463945        1.9450657213        1.7945767677
 C          3.8894540577        1.8978571536        1.1160508522
 C          2.3225013898        2.1434507961        3.1703605080
 C          3.0468484805        2.4131505470        4.3234620900
 C          2.3599291851        2.5936677514        5.5112762331
 C          0.9687145248        2.5219023815        5.5595833680
 C          0.2243726859        2.2491178599        4.4247755417
 C          0.9085243390        2.0425530011        3.2356977102
 N          0.4094665635        1.7985040184        1.9706378446
 C         -0.9217668677        1.5641480351        1.6476602133
 C         -1.5112220980        2.2046563676        0.5368421970
 C         -2.7860924691        1.8879329838        0.1571753626
 C         -3.5104815869        0.9102940709        0.8620413526
 C         -2.9448713009        0.3119560769        2.0009403815
 C         -1.6807630366        0.6465356290        2.4031797863
 S         -4.7746590458        0.0121762707        0.0044739395
 O         -5.5033355303        0.8572479364       -0.9037887081
 O         -5.5099020089       -0.8244371585        0.9152535378
 C         -3.5234732344       -0.8998552687       -0.8574357398
 C         -2.9578601402       -0.3093581714       -2.0003026499
 C         -1.6971617649       -0.6533015516       -2.4051881495
 C         -0.9409242172       -1.5713841276       -1.6472635273
 C         -1.5311524476       -2.2054069361       -0.5334316892
 C         -2.8035493979       -1.8807673805       -0.1521220374
 N          0.3897213014       -1.8093968792       -1.9705503282
 C          0.8865569158       -2.0578767830       -3.2353462857
 C          0.1995293578       -2.2761233679       -4.4207442880
 C          0.9417171523       -2.5521829860       -5.5560713155
 C          2.3335917730       -2.6149671337       -5.5118351723
 C          3.0233833516       -2.4229955978       -4.3274945325
 C          2.3012496926       -2.1507393106       -3.1735964826
 C          2.6623198337       -1.9428439095       -1.7998728096
 C          3.8724304883       -1.8858980463       -1.1247472607
 C          3.8628102517       -1.6274235692        0.2360909107
 C          2.6697380684       -1.4204487090        0.9232968464
 C          1.4485817400       -1.4626009053        0.2704109537
 C          1.4484729591       -1.7457611907       -1.0890249930
 H          4.8097383442        1.6071947405       -0.7886230495
 H          2.7105262881        1.2217250800       -1.9884012316
 H          0.5427473117        1.2809998871       -0.8048174444
 H          4.8190249445        2.0507235556        1.6427196261
 H          4.1227826903        2.4904164949        4.2897222909
 H          2.9071609989        2.8067553024        6.4172259977
 H          0.4615469303        2.6884108863        6.4974883098
 H         -0.8534642494        2.2167732932        4.4625053820
 H         -0.9499279767        2.9661272363        0.0159734549
 H         -3.2608812666        2.3683386112       -0.6831633641
 H         -3.5302794880       -0.4226645267        2.5301850444
 H         -1.2272699514        0.1646580946        3.2566811419
 H         -3.5403978318        0.4269229123       -2.5304540550
 H         -1.2438333978       -0.1791218209       -3.2630724378
 H         -0.9726459856       -2.9680273855       -0.0112270483
 H         -3.2795989094       -2.3567680545        0.6899839838
 H         -0.8786728320       -2.2509726066       -4.4544663826
 H          0.4325347702       -2.7294404910       -6.4909016751
 H          2.8791061006       -2.8308536713       -6.4181621882
 H          4.0999484368       -2.4926192918       -4.2971629001
 H          4.8014631468       -2.0353576740       -1.6533367307
 H          4.7960661071       -1.5839978219        0.7766289235
 H          2.6978925606       -1.2066858070        1.9806740976
 H          0.5273661816       -1.2801341777        0.8023585185
