  65
       -106.48969581
 C          2.9977910654        4.9933522730       -0.5244585774
 C          1.6333254140        5.2635990009       -0.6256986331
 C          0.6857096782        4.3465043274       -0.2077754755
 C          1.1335408226        3.1369853039        0.3065434488
 C          2.5208742476        2.8726053435        0.4508521071
 C          3.4525367955        3.8071827764        0.0222009909
 C          2.6288125950        1.5844966789        1.0694894469
 C          3.7057063400        0.7891795920        1.4359649203
 C          3.4551683046       -0.4580519068        1.9789277678
 C          2.1529935081       -0.9253952216        2.1332557996
 C          1.0631151284       -0.1465159486        1.7785416153
 C          1.3047480330        1.1190386274        1.2661070656
 N          0.4108633957        2.0709878701        0.8032209436
 C         -0.9628658713        1.8918445852        0.7240340131
 C         -1.6588710401        2.1923177287       -0.4681033591
 C         -2.9673786449        1.8212126023       -0.6093583833
 C         -3.6399308217        1.1655063849        0.4389556758
 C         -2.9852966813        0.9852129503        1.6722691591
 C         -1.6723212596        1.3387518052        1.8124811854
 S         -4.9160902618        0.0119811655        0.0036610367
 O         -5.6473254443        0.4503350805       -1.1544428805
 O         -5.6470147497       -0.4205631195        1.1641465667
 C         -3.6503522545       -1.1513022479       -0.4355658271
 C         -2.9981751153       -0.9760152296       -1.6709107523
 C         -1.6876006705       -1.3367933195       -1.8143656363
 C         -0.9779783668       -1.8920699657       -0.7270516002
 C         -1.6726292350       -2.1884300153        0.4669751361
 C         -2.9787197070       -1.8104154104        0.6113353430
 N          0.3949935791       -2.0759749173       -0.8081706225
 C          1.2915929710       -1.1269909054       -1.2721511957
 C          1.0533950410        0.1378436968       -1.7881088725
 C          2.1455499959        0.9143708675       -2.1410690823
 C          3.4466048863        0.4450081101       -1.9828191982
 C          3.6936482824       -0.8017930488       -1.4371914724
 C          2.6144407230       -1.5943480532       -1.0714318834
 C          2.5028968975       -2.8811091427       -0.4505602029
 C          3.4319387346       -3.8164044700       -0.0176393178
 C          2.9737842125       -5.0002167303        0.5315140154
 C          1.6085590927       -5.2683533677        0.6289896064
 C          0.6635276303       -4.3500944834        0.2075577212
 C          1.1147686976       -3.1425186424       -0.3083701969
 H          3.7072999331        5.7315651298       -0.8667356569
 H          1.3102363804        6.2104283740       -1.0304797018
 H         -0.3667691304        4.5771482794       -0.2632529101
 H          4.5090706265        3.6101182864        0.1198605580
 H          4.7164045943        1.1398570033        1.2957986227
 H          4.2787090969       -1.0913747281        2.2716544979
 H          1.9889672984       -1.9147578788        2.5328569903
 H          0.0578080078       -0.5234009551        1.8830373988
 H         -1.1283895400        2.6513237907       -1.2886292646
 H         -3.5039822655        1.9885664224       -1.5295630996
 H         -3.5452012180        0.5547118596        2.4871332291
 H         -1.1669798129        1.2250287340        2.7599690104
 H         -3.5583791378       -0.5444679171       -2.4849619738
 H         -1.1846527672       -1.2280971012       -2.7636583084
 H         -1.1422994699       -2.6490646050        1.2866793113
 H         -3.5141944563       -1.9752568646        1.5326483493
 H          0.0491539614        0.5174475120       -1.8929853505
 H          1.9841904294        1.9033617867       -2.5427595793
 H          4.2719366986        1.0761121737       -2.2752811573
 H          4.7033925975       -1.1542184230       -1.2944355195
 H          4.4890368606       -3.6217873617       -0.1140446303
 H          3.6812366752       -5.7389861367        0.8770647856
 H          1.2828455171       -6.2137984183        1.0349877389
 H         -0.3895436513       -4.5784043378        0.2616038784
