  65
  -106.063800406600       0.397794437355056      !
 C          3.6918578922        0.1689296365       -1.7061661662
 C          2.4458758946       -0.4328508130       -1.8642458080
 C          1.2783589857        0.2397037447       -1.5401237551
 C          1.3866764224        1.5395025550       -1.0666203896
 C          2.6549179466        2.1476851273       -0.8740553862
 C          3.8097332309        1.4549422683       -1.2072944268
 C          2.4051617656        3.4364065952       -0.2964538629
 C          3.2233174928        4.4861880871        0.0979683414
 C          2.6346243527        5.6318818893        0.6030162736
 C          1.2489140889        5.7479095216        0.7029323425
 C          0.4122920360        4.7134682731        0.3211125752
 C          0.9971067354        3.5501794847       -0.1583490371
 N          0.3982409435        2.3975795539       -0.6284381096
 C         -0.9551582236        2.0897848230       -0.5731490612
 C         -1.5985760998        1.5066847365       -1.6851981131
 C         -2.8906023320        1.0705098745       -1.5824064527
 C         -3.5810292662        1.1884354912       -0.3630088912
 C         -2.9672699930        1.8381645403        0.7217204091
 C         -1.6833853118        2.2994345512        0.6165673782
 S         -4.8444198790       -0.0025753903        0.0001054533
 O         -5.5757273712       -0.3724962495       -1.1819972668
 O         -5.5761674151        0.3663579258        1.1822420509
 C         -3.5794472467       -1.1919270957        0.3631562174
 C         -2.9650595365       -1.8410093873       -0.7215352541
 C         -1.6806788689       -2.3009184401       -0.6164757078
 C         -0.9525122529       -2.0902424349        0.5730860171
 C         -1.5963665454       -1.5074726062        1.6850202639
 C         -2.8889190001       -1.0728771141        1.5823869237
 N          0.4011414917       -2.3969044219        0.6283412828
 C          1.3889229948       -1.5378390754        1.0660727445
 C          1.2795986647       -0.2380303049        1.5393033808
 C          2.4465762780        0.4355185315        1.8632178082
 C          3.6930286882       -0.1652191305        1.7049798257
 C          3.8119131179       -1.4513037501        1.2066024186
 C          2.6576314406       -2.1451180917        0.8737025983
 C          2.4088767276       -3.4342102306        0.2964880973
 C          3.2278446877       -4.4834330828       -0.0977409519
 C          2.6400184353       -5.6298946361       -0.6020222947
 C          1.2543769243       -5.7471576651       -0.7015262468
 C          0.4169708987       -4.7131811487       -0.3201536038
 C          1.0008914093       -3.5492251294        0.1586939477
 H          4.5800965559       -0.3845760979       -1.9702147339
 H          2.3892273556       -1.4451927501       -2.2344069014
 H          0.3160519536       -0.2387685281       -1.6411084920
 H          4.7791187001        1.9091949367       -1.0717380465
 H          4.2957565447        4.4092038779        0.0051440994
 H          3.2554265392        6.4584906116        0.9143377961
 H          0.8197843738        6.6643358485        1.0778134632
 H         -0.6600831307        4.8182045628        0.3783182623
 H         -1.0621125558        1.4362266659       -2.6197764067
 H         -3.4043858510        0.6234250578       -2.4182479697
 H         -3.5290675823        1.9379097789        1.6365670730
 H         -1.1934323400        2.7617124529        1.4606102863
 H         -3.5270369705       -1.9418871028       -1.6361965166
 H         -1.1905846653       -2.7635438725       -1.4602334837
 H         -1.0600211947       -1.4367124080        2.6196698581
 H         -3.4027722032       -0.6253710362        2.4179797755
 H          0.3169005292        0.2396354353        1.6404347104
 H          2.3891549392        1.4480688216        2.2326816207
 H          4.5808843344        0.3892779127        1.9683267434
 H          4.7816961668       -1.9044475466        1.0701315514
 H          4.3002220302       -4.4057707506       -0.0045772663
 H          3.2614270449       -6.4564414360       -0.9123304479
 H          0.8259384851       -6.6640781163       -1.0760453161
 H         -0.6553338774       -4.8188230213       -0.3771019772
  65
  -106.063448806000       0.274204297979168      !
 C          3.1931015514        3.9164502825       -2.9429397989
 C          1.8469009806        4.0849022364       -3.2660764867
 C          0.8456753916        3.5391597623       -2.4828712387
 C          1.2210792361        2.8037910241       -1.3664852256
 C          2.5878008994        2.6637069489       -1.0089042816
 C          3.5743326690        3.2182658845       -1.8116441617
 C          2.6153352816        1.9180914220        0.2145686934
 C          3.6411858519        1.4519360044        1.0250397991
 C          3.3168512330        0.6986362941        2.1388220822
 C          1.9926194315        0.3865701633        2.4336287676
 C          0.9525667001        0.8452726194        1.6410429176
 C          1.2668770341        1.6305105417        0.5423098143
 N          0.4345945786        2.1763389344       -0.4214733290
 C         -0.9375818877        1.9793429330       -0.4832738666
 C         -1.5525692212        1.5826704060       -1.6917192750
 C         -2.8626763828        1.1909381044       -1.6971209041
 C         -3.6170146767        1.2076576258       -0.5088727666
 C         -3.0415579275        1.7275037294        0.6661690568
 C         -1.7275367762        2.1039292732        0.6805153481
 S         -4.9047117313       -0.0006973413       -0.3345186999
 O         -5.5520798181       -0.2631927733       -1.5915288184
 O         -5.7161167598        0.2641788161        0.8228638349
 C         -3.6563990237       -1.2127912551        0.0130226203
 C         -2.9280704758       -1.7345562355       -1.0729960146
 C         -1.6245684441       -2.1120193465       -0.9094430795
 C         -0.9986819045       -1.9862027397        0.3501536821
 C         -1.7711564580       -1.5886560748        1.4642940090
 C         -3.0696444056       -1.1962146671        1.2924626285
 N          0.3695453536       -2.1811247342        0.4743022930
 C          1.3236370083       -1.6337382628       -0.3682036488
 C          1.1593870501       -0.8522617831       -1.5018145219
 C          2.2962233695       -0.3889247256       -2.1446984586
 C          3.5690049938       -0.6938078648       -1.6701866464
 C          3.7409806881       -1.4440092801       -0.5208932193
 C          2.6157691984       -1.9138241880        0.1422700517
 C          2.4242373204       -2.6576640974        1.3521028909
 C          3.2939066974       -3.2056833738        2.2841257579
 C          2.7642499245       -3.9029013273        3.3547504565
 C          1.3872575396       -4.0787025957        3.4897477188
 C          0.5003830395       -3.5387946235        2.5755039439
 C          1.0220334431       -2.8036001255        1.5193744841
 H          3.9462249668        4.3524187566       -3.5818852312
 H          1.5805720922        4.6594558525       -4.1399627289
 H         -0.1932623533        3.7000066091       -2.7251988582
 H          4.6160259891        3.1085299201       -1.5518970050
 H          4.6697707460        1.6729590127        0.7856778460
 H          4.0997709259        0.3278285337        2.7826734085
 H          1.7717782070       -0.2277779215        3.2934134854
 H         -0.0694730078        0.5828892132        1.8650827963
 H         -0.9599469088        1.5240591413       -2.5921211092
 H         -3.3389651825        0.8305162960       -2.5948806526
 H         -3.6622278670        1.8069033210        1.5444015220
 H         -1.2821760891        2.5241208130        1.5699696873
 H         -3.4249732168       -1.8155401869       -2.0265526655
 H         -1.0640007919       -2.5347979289       -1.7297785086
 H         -1.3053880589       -1.5291080395        2.4363344659
 H         -3.6629740157       -0.8358610266        2.1175861316
 H          0.1765636378       -0.5930122468       -1.8629877439
 H          2.1925270333        0.2231332286       -3.0279466309
 H          4.4311168823       -0.3204444021       -2.2015638697
 H          4.7280338581       -1.6598556256       -0.1423395468
 H          4.3608822777       -3.0918414724        2.1691067000
 H          3.4246569142       -4.3338859658        4.0921712366
 H          1.0062361926       -4.6531151676        4.3202072850
 H         -0.5612782615       -3.7039176925        2.6735608402
  65
  -106.063206630800       0.212216057370643      !
 C          3.8538415131        0.4575352706       -1.5557986623
 C          2.6439592162       -0.2168092149       -1.6982634319
 C          1.4381871966        0.4056595782       -1.4202222036
 C          1.4699306152        1.7363810748       -1.0244928236
 C          2.7008451131        2.4274154868       -0.8662720090
 C          3.8953614549        1.7775184600       -1.1378134210
 C          2.3719042998        3.7453613714       -0.4018138681
 C          3.1215104284        4.8746159335       -0.1019494255
 C          2.4593915210        6.0266571384        0.2848974935
 C          1.0682915960        6.0691249490        0.3630032882
 C          0.2991589709        4.9546067273        0.0761985756
 C          0.9583466394        3.7892956682       -0.2875216623
 N          0.4315945560        2.5679233169       -0.6611217699
 C         -0.9068154221        2.1993579531       -0.5873444322
 C         -1.5243455872        1.5230833184       -1.6601296754
 C         -2.8049628971        1.0593860514       -1.5346893370
 C         -3.5058678447        1.2391869973       -0.3290650930
 C         -2.9126793448        1.9626519360        0.7188288692
 C         -1.6433282680        2.4561435962        0.5875900711
 S         -4.7785776174        0.0792086091        0.0910545796
 O         -5.5413109557       -0.3146565956       -1.0635451569
 O         -5.4792051617        0.5021183468        1.2743856123
 C         -3.5366696281       -1.1292394523        0.4613797002
 C         -3.0023267848       -1.8596948397       -0.6141494947
 C         -1.7451935490       -2.3924441080       -0.5329732137
 C         -0.9614927877       -2.1758298120        0.6198428030
 C         -1.5227319595       -1.4951543374        1.7219963553
 C         -2.7898071784       -0.9870442225        1.6443358364
 N          0.3654371421       -2.5858907248        0.6450357861
 C          0.8459308676       -3.8101302773        0.2195584212
 C          0.1448998575       -4.9423899490       -0.1690921386
 C          0.8740248059       -6.0658073167       -0.5196465472
 C          2.2672986925       -6.0652523250       -0.4773005547
 C          2.9716791363       -4.9489141905       -0.0617122709
 C          2.2627556058       -3.8116711406        0.3007672397
 C          2.6426009056       -2.5211502448        0.8005799412
 C          3.8630633503       -1.9174405464        1.0640116520
 C          3.8732135814       -0.6076410132        1.5142817887
 C          2.6890262735        0.1023746874        1.6958022876
 C          1.4579543368       -0.4753527007        1.4321312975
 C          1.4376028103       -1.7972811237        1.0071180576
 H          4.7746677660       -0.0609779184       -1.7753703333
 H          2.6469684206       -1.2486210943       -2.0143205027
 H          0.5042014757       -0.1278676324       -1.5087801923
 H          4.8370269598        2.2914543488       -1.0194792019
 H          4.1977959685        4.8549813241       -0.1792844383
 H          3.0263955570        6.9152065213        0.5185798194
 H          0.5810813853        6.9898568806        0.6449613390
 H         -0.7782713913        4.9979677717        0.1158971144
 H         -0.9805603868        1.4069238370       -2.5858717562
 H         -3.3014458251        0.5473507064       -2.3431851725
 H         -3.4809757700        2.0987727929        1.6249554127
 H         -1.1692493859        2.9843607037        1.4015345649
 H         -3.6061355633       -1.9691247102       -1.5006482697
 H         -1.3157631560       -2.9220564232       -1.3703439964
 H         -0.9466761310       -1.4118923253        2.6315853418
 H         -3.2410604073       -0.4666363966        2.4738454395
 H         -0.9339239529       -4.9560031554       -0.1809178403
 H          0.3532067457       -6.9602359599       -0.8251137938
 H          2.8024036046       -6.9584512055       -0.7627278534
 H          4.0496923421       -4.9620525847       -0.0120024584
 H          4.7847454421       -2.4583451812        0.9131163406
 H          4.8147200567       -0.1245667172        1.7269718385
 H          2.7321043977        1.1270457004        2.0314601654
 H          0.5446609168        0.0871977517        1.5511507260
  65
  -106.062634082100       0.115785207295133      !
 C          3.8518823680        0.4974804307       -1.6477145190
 C          2.6451124591       -0.1884455262       -1.7575133225
 C          1.4406411473        0.4247547376       -1.4539476504
 C          1.4706997523        1.7563688321       -1.0609726665
 C          2.6991358353        2.4575643880       -0.9304659305
 C          3.8922320123        1.8183629340       -1.2326274172
 C          2.3703763896        3.7704672855       -0.4521857940
 C          3.1179996992        4.9040873409       -0.1640454137
 C          2.4566433403        6.0476135397        0.2486319630
 C          1.0678233941        6.0774007722        0.3637577915
 C          0.3006691387        4.9587782171        0.0873470490
 C          0.9595271149        3.8019408534       -0.3028735243
 N          0.4342432009        2.5781735774       -0.6709299014
 C         -0.9013221646        2.2029634789       -0.5878500481
 C         -1.5235185011        1.5322608830       -1.6623986996
 C         -2.8031063036        1.0674726023       -1.5344065909
 C         -3.4998320360        1.2411836032       -0.3253775408
 C         -2.9013066798        1.9568411231        0.7256296243
 C         -1.6321607152        2.4501032367        0.5926983374
 S         -4.7731131986        0.0812778372        0.0912227398
 O         -5.5321490228       -0.3124479728       -1.0658862353
 O         -5.4775504112        0.5031542254        1.2726677229
 C         -3.5318056115       -1.1267217723        0.4654528513
 C         -2.9994843011       -1.8665308493       -0.6041575080
 C         -1.7446141172       -2.4043937545       -0.5170137943
 C         -0.9606600663       -2.1780769713        0.6333849790
 C         -1.5177609489       -1.4839748863        1.7282989260
 C         -2.7846491431       -0.9758146081        1.6473710210
 N          0.3648063396       -2.5951997487        0.6638696815
 C          0.8351425945       -3.8357517745        0.2790175240
 C          0.1234938882       -4.9742648658       -0.0704834356
 C          0.8424022470       -6.1171787385       -0.3753403622
 C          2.2355531443       -6.1285050224       -0.3282666137
 C          2.9502406545       -5.0033107763        0.0438730309
 C          2.2518515682       -3.8460928956        0.3603863446
 C          2.6421128118       -2.5413298253        0.8142567736
 C          3.8667440547       -1.9368300642        1.0556350913
 C          3.8855628521       -0.6141185856        1.4665637107
 C          2.7063725251        0.1075700452        1.6314500900
 C          1.4710432693       -0.4701842493        1.3876854907
 C          1.4428129562       -1.8031096376        0.9994087712
 H          4.7715995730       -0.0131413952       -1.8895102557
 H          2.6498123610       -1.2217296963       -2.0686167814
 H          0.5093740259       -0.1166881710       -1.5199304084
 H          4.8318967438        2.3410995526       -1.1397469145
 H          4.1919168143        4.8944705185       -0.2705929205
 H          3.0221560303        6.9391463408        0.4744163749
 H          0.5805549993        6.9910690628        0.6677141981
 H         -0.7755710874        4.9930495946        0.1561556189
 H         -0.9831209667        1.4218433195       -2.5908230032
 H         -3.3026070278        0.5585702025       -2.3430477466
 H         -3.4659237568        2.0876276478        1.6347899684
 H         -1.1536282405        2.9702514221        1.4092637275
 H         -3.6024660712       -1.9798212047       -1.4907796310
 H         -1.3166387223       -2.9456271208       -1.3478097873
 H         -0.9386849188       -1.3897126130        2.6349425606
 H         -3.2356812860       -0.4490225492        2.4728420760
 H         -0.9554161716       -4.9760430706       -0.0859632086
 H          0.3138510353       -7.0179403672       -0.6471064887
 H          2.7624478633       -7.0380743594       -0.5746141626
 H          4.0279438755       -5.0253941402        0.0970514268
 H          4.7849839517       -2.4875360728        0.9199697957
 H          4.8304811475       -0.1306112736        1.6624813584
 H          2.7564648286        1.1408615297        1.9385874767
 H          0.5603183639        0.0988753823        1.4956285583
