63
 energy: -105.594669983088 gnorm: 0.000128077194 xtb: 6.7.1 (edcfbbe)
N            1.92748114081984        3.61561662522484       -0.77367490658920
C            1.45571884571069        2.62788597671699       -0.42958043524328
C            0.85491529630558        1.40789186695832       -0.04827565019339
C           -0.51909608155552        1.28415549606916       -0.12882401757462
C           -1.15042415057479        0.06052777680182        0.15548896507424
C           -2.56044573040423       -0.05910051684935        0.07793223783998
N           -3.31797389992932        1.01451418849794       -0.26200438758000
C           -4.61471412828920        0.88484260923117       -0.32198992444855
C           -5.43483575761659        2.03461512177829       -0.67914310647109
C           -6.82328645750565        1.91338354287749       -0.74148467348366
C           -7.59905276204148        3.00430167906260       -1.07948340444617
C           -7.00198379338936        4.22408281284594       -1.35836663085284
C           -5.62186929032323        4.35061999668068       -1.29807244342675
C           -4.83958041372572        3.26496806971462       -0.96084288536866
N           -5.23306004586585       -0.28551051750858       -0.06507102769690
C           -4.45676351676020       -1.33807941828855        0.26567809961991
C           -5.10461749452956       -2.61247714274271        0.54353751636906
C           -6.49315854385205       -2.72557437143114        0.46738861640243
C           -7.10489987151943       -3.93490051812169        0.73085434863097
C           -6.34277126124985       -5.04167604949411        1.07189763500960
C           -4.96169823264626       -4.93540273735653        1.14881831476259
C           -4.34278449994986       -3.73025395585089        0.88701251945538
N           -3.15760956113140       -1.24683935885702        0.34531610913006
C           -0.34087885140521       -1.04651444811988        0.50628145803435
C            1.02071291492068       -0.92194142706435        0.59311985974015
C            1.64585419715161        0.30195635836781        0.33959918764771
N            3.03960226784604        0.41481925754523        0.43456068806774
C            3.75748587130552        1.39265546393315        1.11951078031950
C            3.29110826300469        2.41384772438951        1.92663219970962
C            4.22677187775006        3.24895008120046        2.51409451564491
C            5.59184117184614        3.06317247301244        2.31465812472579
C            6.06700194827433        2.02428115380826        1.53936676845958
C            5.14879782121212        1.16821015774004        0.93836081865349
C            5.25958512345137        0.00099993847024        0.12862356504910
C            6.21608904022588       -0.85086535803420       -0.48872507045634
C            7.61003143961755       -0.79907328593711       -0.48552114068243
C            8.32917389977569       -1.75572637773210       -1.17180822902065
C            7.68370962234048       -2.77255690376470       -1.86739338471914
C            6.30014957326106       -2.84751843720881       -1.88807747482118
C            5.57889061863486       -1.89126608772525       -1.20316865904909
S            3.81429711929847       -1.82037148422387       -1.11621667396261
C            3.94822541471551       -0.41191980377344       -0.13238126230033
H           -1.12136624546444        2.12794673191382       -0.42853358420698
H           -7.27330265456699        0.95750784262011       -0.52165541183230
H           -8.67381458914836        2.90664277601532       -1.12664928536084
H           -7.61119818987932        5.07581434293651       -1.62272261907431
H           -5.15765162795440        5.30124092138208       -1.51580331484671
H           -3.76498034085078        3.34838756624230       -0.91031215540623
H           -7.07292594194861       -1.85544701924669        0.20054873410023
H           -8.18020062552003       -4.01851370249781        0.67099883973208
H           -6.82390849123222       -5.98652678248149        1.27743352452996
H           -4.36904856103726       -5.79865586266483        1.41418891738892
H           -3.26970105203768       -3.63170906886335        0.94235552161939
H           -0.82263396749930       -1.98893016713938        0.71041136915474
H            1.63000072663342       -1.76856060808942        0.87413253534360
H            2.23639129335510        2.55772721318073        2.10165733791386
H            3.88796476910001        4.05924633020865        3.14096126025943
H            6.28967139107200        3.73942861510460        2.78484016362216
H            7.12658075256564        1.87332186917347        1.40405192980393
H            8.11134176769254       -0.01045414285208        0.05315851581461
H            9.40803676406626       -1.71586153780556       -1.17018563456927
H            8.26363980783407       -3.51174991760569       -2.39833788175467
H            5.79378024026827       -3.63288844371693       -2.42746093199162
