63
 energy: -105.667293221807 gnorm: 0.000058261197 xtb: 6.7.1 (edcfbbe)
N            2.12263947347051        3.66446457165094       -0.73750754022366
C            1.68802394741624        2.65713277797915       -0.40496275315556
C            1.10378816896158        1.41554122302214       -0.06052302738576
C           -0.28045712492695        1.29449344542104       -0.12667251106015
C           -0.89010061834401        0.06697499363657        0.09768873096691
C           -2.34791880734399       -0.05161147604230        0.03010011694668
N           -3.04604201609720        1.04345873123428       -0.24761142993131
C           -4.36776765979599        0.89077877161755       -0.30362048762607
C           -5.18201319632684        2.06437056960669       -0.61387729252756
C           -6.57006957607761        1.95593372211761       -0.68030134045751
C           -7.33670691968767        3.06629794986082       -0.97490769102842
C           -6.72805715969058        4.29055377855523       -1.20518109262847
C           -5.34786925533072        4.40381228888475       -1.14040831821734
C           -4.57511040503034        3.29751300143628       -0.84628951963263
N           -4.98820746484563       -0.26636225529903       -0.09353593029863
C           -4.21137781101535       -1.30909815313638        0.18275666090542
C           -4.85179990331794       -2.60082866854240        0.42552184559739
C           -6.23942368124758       -2.71676218180819        0.36583076486677
C           -6.84155890825327       -3.93811171294589        0.59682824433128
C           -6.06787357947259       -5.05098313118783        0.88839051902062
C           -4.68720934396255       -4.94108643613291        0.94866394632411
C           -4.07859059862829       -3.72279148820194        0.71873707470972
N           -2.88283887151423       -1.24691668495964        0.25194688711925
C           -0.10161880195338       -1.05146231192171        0.37248393090266
C            1.26936018971838       -0.93837210679340        0.44914580246440
C            1.89234540711147        0.29345420848921        0.25549096620558
N            3.27730343928591        0.39139835561750        0.34455094393703
C            4.02259763506685        1.37004884773239        0.99836733587213
C            3.59138674053636        2.39595496297554        1.82303509467713
C            4.55069319511179        3.21466492586928        2.38666060952220
C            5.90828618353386        3.00873887918133        2.15274901930844
C            6.34782331940298        1.96150750714521        1.37030724955013
C            5.40354029189020        1.12152764699040        0.79113968888686
C            5.48176362082166       -0.05915080371494       -0.01183652293682
C            6.42281460385832       -0.92045121838666       -0.65131416110846
C            7.81446543525057       -0.87502970529383       -0.68636552772438
C            8.51053302060881       -1.83878300751335       -1.38540039567122
C            7.84294644308863       -2.85783533744542       -2.05790304167946
C            6.46238082966887       -2.92633076945782       -2.04147237118956
C            5.76375537538947       -1.96022950279467       -1.34173651833969
S            4.00761279482852       -1.87972156690553       -1.20748470818871
C            4.17832302971374       -0.46577918953246       -0.22827727577683
H           -0.88854570667544        2.15256522726354       -0.36762274071658
H           -7.02589903226338        0.99548145932020       -0.49845614712709
H           -8.41222888697516        2.98076719950589       -1.02624797774606
H           -7.33007180115303        5.15732707325425       -1.43568219973453
H           -4.87563049659181        5.35831024177634       -1.32048864976205
H           -3.50021606861799        3.36820389478479       -0.79261461868515
H           -6.82497137059312       -1.84020725899451        0.13772108479229
H           -7.91705289718418       -4.02643911280893        0.55033595704200
H           -6.54136619955131       -6.00499809702431        1.06875634059247
H           -4.08653523456187       -5.80962737168612        1.17576735327369
H           -3.00587808878303       -3.61902806243489        0.76141200928271
H           -0.58680871886945       -2.00087583180066        0.53173015578509
H            1.87613960352846       -1.80251967266016        0.67335826248907
H            2.54420122467853        2.55301005266599        2.03167258596805
H            4.24001797421696        4.02757614670253        3.02484265345589
H            6.62716518860852        3.67400002394066        2.60703600534969
H            7.40144284111888        1.78891901379962        1.21570650412420
H            8.33419382546032       -0.08533702527718       -0.16671846619761
H            9.58945585903575       -1.80377325261954       -1.41275267777833
H            8.40658035144938       -3.60238186949363       -2.59919797875216
H            5.93624119183407       -3.71189722925616       -2.56176643099758
