63
 energy: -105.594651951490 gnorm: 0.000073766357 xtb: 6.7.1 (edcfbbe)
N            1.91049957609336        3.60023740952301       -0.89487507582393
C            1.44515502891453        2.61958725566609       -0.52273903756802
C            0.85102452269747        1.40702908806412       -0.10869413819777
C           -0.52282356443501        1.27670543127293       -0.18110794037906
C           -1.14864414758542        0.05684468071484        0.13021377228603
C           -2.55881192199968       -0.06793335752763        0.06398358300827
N           -3.32237114408350        1.00327096135224       -0.26993577267364
C           -4.61952807299591        0.87108633421338       -0.31346687483460
C           -5.44645501236153        2.02083443528917       -0.65465441998374
C           -6.83561419701956        1.89849274153240       -0.69508577207719
C           -7.61776262337103        2.99032987385521       -1.01495259043015
C           -7.02643277402500        4.21205265438372       -1.29753989786043
C           -5.64562623645635        4.33962281272406       -1.25929274694635
C           -4.85699358343644        3.25312968295971       -0.94006271239290
N           -5.23207196212791       -0.30124990266509       -0.05178091377869
C           -4.44953359290307       -1.35230827365963        0.26896795504301
C           -5.09092854994558       -2.63003912024907        0.54659771356203
C           -6.47978177836226       -2.74697038437758        0.48276675299031
C           -7.08530251586938       -3.95999675181495        0.74356821447261
C           -6.31658787985059       -5.06671477948637        1.06969066598102
C           -4.93519847747873       -4.95658903223113        1.13454966790106
C           -4.32247176104053       -3.74771848705687        0.87531726844888
N           -3.15003103675087       -1.25706148399373        0.33831519050681
C           -0.33336843709107       -1.04063170007479        0.49735783702481
C            1.02776559468102       -0.90842832117665        0.57964933944683
C            1.64745000135645        0.31311284794593        0.30180895932793
N            3.04003612163056        0.43546953137628        0.39769966984962
C            3.74982028289717        1.43749012679059        1.05619055991620
C            3.27490782583752        2.47975201843469        1.83078127208160
C            4.20365180434683        3.33755735887672        2.39615117289096
C            5.57047555464314        3.15362207622507        2.20759357947242
C            6.05428966222047        2.09369400202889        1.46692181496640
C            5.14309223743434        1.21461084241114        0.88892445437601
C            5.26372774400639        0.02274856332250        0.11753855298449
C            6.22808109985233       -0.84536378201026       -0.46372410399699
C            7.62178068492888       -0.78814613066643       -0.45122035889914
C            8.34982425563341       -1.76572361222910       -1.09743618180949
C            7.71358026690611       -2.80880723577903       -1.76196244867013
C            6.33048350366214       -2.88941861089198       -1.79152461271869
C            5.60033250922102       -1.91239605601710       -1.14651621766414
S            3.83492313032584       -1.84573692803435       -1.07492406749659
C            3.95575508494257       -0.40459009687460       -0.13761480776813
H           -1.12920510435000        2.11176420161579       -0.49658124789399
H           -7.28116160397183        0.94119625195655       -0.47235440773018
H           -8.69307672200814        2.89192318246904       -1.04483347778026
H           -7.64066274415858        5.06455355694956       -1.54742016911412
H           -5.18587020591982        5.29178044803528       -1.47976729890821
H           -3.78180991165714        3.33743245310395       -0.90615470388159
H           -7.06469391060015       -1.87692049760077        0.22713016790834
H           -8.16084618955450       -4.04662076119873        0.69300305618595
H           -6.79284760657172       -6.01454442744346        1.27287842388375
H           -4.33742185414850       -5.81981789513866        1.38824753350573
H           -3.24919434278480       -3.64628710786958        0.92082003148639
H           -0.81054602310103       -1.98113820546355        0.72019238981223
H            1.64078739366188       -1.74685886356536        0.87654267636997
H            2.21891915995291        2.62288929506859        1.99842471482445
H            3.85779152812110        4.16445795848186        2.99693079312646
H            6.26270311053095        3.84795469192405        2.65933980901404
H            7.11519378131633        1.94412776738468        1.34079357449305
H            8.11593555536535        0.02066394530294        0.06360310640457
H            9.42850150135038       -1.72198673337201       -1.08819796045775
H            8.30042028399038       -3.56431547564517       -2.26141996717218
H            5.83131964014020       -3.69523963833467       -2.30692536999411
