  98
       -153.08104581
 C         -2.0043949820       -6.3649217853        1.6870479164
 O         -2.8689086465       -5.9397533905        0.6602537319
 C         -3.1592208015       -4.6098885952        0.5641802039
 C         -3.9842551791       -4.2374748499       -0.4983739572
 C         -4.3091475511       -2.9161481525       -0.7112233775
 C         -3.8322887055       -1.9220517142        0.1444249362
 N         -4.1087201437       -0.5672619787       -0.0969284319
 C         -5.3525011851       -0.1903444337       -0.6112538675
 C         -5.4617926952        0.8192273130       -1.5628726320
 C         -6.6945105592        1.1984468755       -2.0634413748
 C         -7.8506825454        0.5613325917       -1.6298563604
 O         -9.1163612660        0.8502175128       -2.0577812471
 C         -9.2816762384        1.8680103624       -3.0121017459
 C         -7.7447542919       -0.4591719463       -0.6834889259
 C         -6.5185662073       -0.8260141533       -0.1781883404
 C         -3.0919696131        0.3751041359        0.0956758863
 C         -3.3928552673        1.6803043295        0.5173190939
 C         -2.4059652860        2.6139968488        0.7647674607
 C         -1.0809861858        2.2236039609        0.6286033689
 C         -0.7689635325        0.9187234951        0.1895443111
 C         -1.7665790419        0.0066844364       -0.1019668595
 C          0.6596392028        0.8168979953        0.1910471683
 C          1.5168518764       -0.2393500962       -0.0587146407
 C          2.8764788628       -0.0666823062        0.1668488805
 N          3.7413066656       -1.1604086004        0.0163875447
 C          3.2579810048       -2.4340809001        0.3472041539
 C          2.4574747948       -2.6088508217        1.4791996453
 C          1.9180126563       -3.8392201618        1.7736974712
 C          2.1713620325       -4.9421105182        0.9568109081
 O          1.5630764062       -6.1100859552        1.3285024488
 C          1.7778397067       -7.2546916241        0.5403545653
 C          2.9963735401       -4.7837469837       -0.1495670439
 C          3.5273990669       -3.5412029377       -0.4504419174
 C          5.0144531349       -1.0045640720       -0.5335293290
 C          5.2648355883       -0.0383674157       -1.5036595998
 C          6.5283123791        0.1204430934       -2.0444218630
 C          7.5726580039       -0.6984391011       -1.6332913741
 O          8.8545733679       -0.6371655178       -2.1047849305
 C          9.1586845833        0.3203985468       -3.0867708075
 C          7.3255219649       -1.6711423941       -0.6632464006
 C          6.0709748337       -1.8188529144       -0.1177898217
 C          3.3602684360        1.1800531763        0.5920998329
 C          2.5180404768        2.2523938045        0.8094001999
 C          1.1550706310        2.0692328320        0.6147994123
 N          0.0920183041        2.9239440617        0.8464963244
 C          0.1781986973        4.2294003062        1.3527320492
 C         -0.4638829311        4.5452449400        2.5269467400
 C         -0.3799184317        5.8353683488        3.0630344992
 C          0.3555253229        6.7990243595        2.4318298707
 C          1.0148727816        6.5190197354        1.2169669741
 C          1.7603023234        7.5052793405        0.5369679400
 C          2.3600641952        7.2314075347       -0.6595710359
 C          2.2287959662        5.9602357506       -1.2379450168
 C          1.5243422348        4.9774936957       -0.6001913921
 C          0.9164717740        5.2206849532        0.6494681144
 C         -3.0449664623       -2.3031623714        1.2276974332
 C         -2.6991863685       -3.6261399416        1.4321266281
 H         -1.9199282332       -7.4442530407        1.5691864085
 H         -2.4166110279       -6.1446942601        2.6771729359
 H         -1.0114710035       -5.9133533224        1.5961389190
 H         -4.3450474167       -5.0077199040       -1.1615412805
 H         -4.9283837315       -2.6425379669       -1.5524618011
 H         -4.5697858159        1.3137621052       -1.9182288916
 H         -6.7340257145        1.9864536351       -2.7990226335
 H        -10.3529842248        1.9270970345       -3.1985015180
 H         -8.7654467755        1.6312215441       -3.9486191532
 H         -8.9270231423        2.8342122509       -2.6373403205
 H         -8.6481068125       -0.9461106301       -0.3520525182
 H         -6.4513140603       -1.6111074292        0.5598934425
 H         -4.4276725603        1.9537361478        0.6597381853
 H         -2.6659603260        3.6144425967        1.0767910228
 H         -1.5157397224       -0.9816954221       -0.4539235212
 H          1.1293662699       -1.1909395886       -0.3879112803
 H          2.2507340583       -1.7636238678        2.1182264813
 H          1.2923619190       -3.9747327793        2.6419462822
 H          1.2159013603       -8.0538069495        1.0215392503
 H          1.4058907312       -7.1154567917       -0.4800579475
 H          2.8375025595       -7.5278403648        0.5076601375
 H          3.2230915471       -5.6144197860       -0.7991429558
 H          4.1515169502       -3.4277383785       -1.3245206180
 H          4.4591981565        0.5960911612       -1.8423539671
 H          6.6784649572        0.8821926338       -2.7933537518
 H          8.9919201152        1.3395524503       -2.7219731047
 H          8.5742239141        0.1622224028       -3.9994130574
 H         10.2162202427        0.1881315224       -3.3108993254
 H          8.1440497435       -2.2975660005       -0.3458909938
 H          5.8964389773       -2.5688577037        0.6391463913
 H          4.4195145357        1.2918393069        0.7695735432
 H          2.9126607512        3.1981440507        1.1492607981
 H         -1.0244208878        3.7820374612        3.0464605462
 H         -0.8918236881        6.0546412762        3.9883057855
 H          0.4363939438        7.7921121441        2.8490542528
 H          1.8422869387        8.4868273288        0.9816672059
 H          2.9276668963        7.9932697435       -1.1735174805
 H          2.6860481166        5.7632976266       -2.1964353411
 H          1.4194077715        4.0052755367       -1.0575866817
 H         -2.6826480192       -1.5499399970        1.9117203761
 H         -2.0723013937       -3.8749782416        2.2735271013
