128
 energy: -201.526264688648 gnorm: 0.000144917740 xtb: 6.7.1 (edcfbbe)
O            8.15005991567417       -3.21576073193860        2.28216230069346
P            7.24231426855519       -2.50368928718364        1.37373847833150
C            7.07309663217887       -3.33092285523378       -0.23930126461588
C            6.10574290001462       -2.98334110327837       -1.17223809389821
C            6.01737750352865       -3.68540081339510       -2.36022172874159
C            6.89503539191583       -4.72546703597694       -2.62231065005311
C            7.86138235105381       -5.07259553841974       -1.69186572728935
C            7.94557091329691       -4.37956606879181       -0.49794342101988
C            7.81257442285748       -0.80576490980350        1.04713103897278
C            7.34788046252982        0.27438113241256        1.78037332217051
C            7.90396538000389        1.52598259594283        1.58308753467262
C            8.91947939294766        1.69691870630390        0.65680610659714
C            9.40025135106648        0.61227974322486       -0.05947115962312
C            8.85233999614241       -0.64147499787924        0.14315377357123
C            5.54691785110514       -2.39634031744666        2.02029747226357
C            5.22838430325541       -3.29261017376264        3.03500720420181
C            3.95189443559298       -3.37899375301065        3.57055505031970
C            2.93137891367069       -2.56945300225164        3.09575591299229
C            3.22204120438917       -1.66326009319942        2.09049107419489
C            4.52697815400102       -1.57074118455920        1.56108483149865
O            4.60874719402420       -0.60911515351801        0.60243762379883
C            3.36753158398634       -0.07418356235388        0.48327135800765
C            2.94272978813777        0.96554972709862       -0.37755891583371
P            3.98011934868117        1.93013894476078       -1.51261965640119
O            3.16949513601117        2.78646488061644       -2.39000301497144
C            5.03122067975482        0.77742887821795       -2.44789466743021
C            6.28009250107341        0.35970521237766       -2.01264350362523
C            7.04352351014630       -0.46172694648460       -2.82292537738291
C            6.55883747822531       -0.87610637373699       -4.05281821824166
C            5.30434303407167       -0.47034143687853       -4.48004158488704
C            4.54306695081548        0.36117416189441       -3.67958625153174
C            5.09641316028680        2.92270478820403       -0.46571255564165
C            4.77950414827121        3.22529451088239        0.84906255707054
C            5.55416178971525        4.13286361512470        1.55131302668263
C            6.63905663801919        4.73946398943275        0.93981189278024
C            6.95351034965987        4.43905684493846       -0.37622212509030
C            6.17919263414943        3.53610646080177       -1.08046690597054
C            1.62376929475087        1.31926442641035       -0.34337554943959
C            0.63867636939437        0.71032135063340        0.50503370370607
C           -0.70788278834504        1.09197667445149        0.46416144952106
C           -1.16839167339440        2.24900326068060       -0.26678697296185
C           -2.48239278876957        2.59124422633523       -0.32158947514889
C           -3.47586671977704        1.81346451747645        0.31204680543060
C           -4.92597202694908        2.21143832491761        0.28834812015982
C           -5.85775554925937        1.02378532850729        0.21266559477417
C           -7.08520160309362        1.03008168588323        0.86303631929404
C           -7.95335732279409       -0.03764511097329        0.74280866940429
C           -7.61233196355724       -1.13035669448476       -0.04870838167462
N           -8.48964295497008       -2.21521050836911       -0.17520328626378
C           -9.82877558436934       -2.13779419393964       -0.50071941302864
C          -10.59862232509969       -1.02683467825053       -0.81596159394782
C          -11.92730967812632       -1.23350657184583       -1.13506264906873
C          -12.48139068718215       -2.51131848879342       -1.15120083435798
C          -11.71363120966472       -3.62314001012228       -0.86223056770459
C          -10.37658735220568       -3.44105117855582       -0.53855224020553
C           -9.30591930089472       -4.34314359716276       -0.21342555255846
C           -9.22655182690159       -5.72186046794627       -0.07770164130320
C           -8.01411242244677       -6.28316665264850        0.27456970691112
C           -6.89520475279463       -5.48636161488590        0.50495286438817
C           -6.94965506763949       -4.11143488635885        0.37643863226377
C           -8.15878283668741       -3.54385900633245       -0.00075867995202
C           -6.39010758074242       -1.13561318782463       -0.71544423401826
C           -5.52488367747355       -0.06912642993915       -0.58156639855062
C           -5.14770555853893        3.09848520075036        1.50231829701913
C           -4.99005567318643        2.78913118674310        2.83726517259263
C           -5.22648833687286        3.77831897318457        3.78109715336722
C           -5.60196055429868        5.05685599485892        3.39377759136208
C           -5.75464130849906        5.37510100340354        2.05451111632990
C           -5.52596084513093        4.39093953696742        1.10675581843038
C           -5.61773242421628        4.42555544874522       -0.34241209991001
C           -5.97348634114836        5.44892732956508       -1.20609237275947
C           -5.97982502854251        5.19577111699652       -2.56801836552405
C           -5.64022452875478        3.94433655278815       -3.05938092849357
C           -5.28286191091552        2.91469289375589       -2.19875146831954
C           -5.26949899826213        3.16311358328571       -0.84350561330575
C           -3.05035529540265        0.69612135703678        1.06628679625462
C           -1.73922463368019        0.35136876405126        1.15067411759342
C            1.12167322704072       -0.32811486698415        1.39994551804012
C            2.44240584855863       -0.68650689365445        1.36578704308274
H            5.43147423267029       -2.16524200606050       -0.97543865883623
H            5.26216379273545       -3.41752616967785       -3.08470702003565
H            6.82234927922253       -5.26931838731487       -3.55294788258463
H            8.54354551204762       -5.88507114287018       -1.89581087600670
H            8.67920872036622       -4.63832831913340        0.25237118942385
H            6.56104678093739        0.13222371818858        2.50817394169743
H            7.54657295066009        2.37045153896910        2.15273494754672
H            9.34406508540764        2.67766322734545        0.50196277977743
H           10.20364689294153        0.74557164930628       -0.76949674793493
H            9.22500800214684       -1.50719692616710       -0.38949417069194
H            6.02273436895767       -3.92543257088975        3.40338564605417
H            3.75197469302607       -4.08764914957212        4.35967163551641
H            1.93260573476853       -2.63707754344694        3.49868361837448
H            6.65140826328118        0.68245389792581       -1.05150850935105
H            8.02190475987260       -0.77796134442904       -2.49408820602421
H            7.16251025676577       -1.51616585736805       -4.67971206725548
H            4.92678081279710       -0.79400135625193       -5.43929346711937
H            3.57337596042797        0.71560866689416       -3.99994282674524
H            3.92348893449138        2.75776943788340        1.31676206565734
H            5.30605163229865        4.37336392335467        2.57540106896370
H            7.23785981082637        5.45214135711821        1.48842747714498
H            7.79459702417828        4.91910464153455       -0.85511235133561
H            6.39841035055388        3.30443350050180       -2.11444105011225
H            1.32692472596688        2.09253437562821       -1.03452845876097
H           -0.44907522936123        2.88067619559107       -0.76041308140825
H           -2.78170824971203        3.47461495439081       -0.86692497306830
H           -7.36057923792312        1.87365011822441        1.47871587056089
H           -8.89304196476688       -0.03703491913038        1.27456366980336
H          -10.17317766517324       -0.03472667569613       -0.82463071274053
H          -12.54855548710579       -0.38523958587157       -1.38132878344246
H          -13.52440114871137       -2.63096424728753       -1.40330251579649
H          -12.13948171664032       -4.61459700203366       -0.89110720541120
H          -10.09721786100561       -6.33869299213940       -0.24081107903469
H           -7.93041030259695       -7.35415366014266        0.38277054463843
H           -5.96503099707938       -5.95282522787893        0.79373067160245
H           -6.08163255040921       -3.50084371710714        0.57389565264920
H           -6.13281810133298       -1.97003953258942       -1.35063075023532
H           -4.57658763411676       -0.08300181434001       -1.09905927981694
H           -4.69479625395069        1.79793359662299        3.14716276456729
H           -5.11569562964209        3.54973740920336        4.83083027326859
H           -5.77568468249496        5.81165690914425        4.14662433917289
H           -6.04546155244302        6.37084662658377        1.75480392264755
H           -6.23954390918817        6.42386005782521       -0.82589018587593
H           -6.25302346686810        5.98187123559285       -3.25661974148642
H           -5.65278194880704        3.76744179022329       -4.12465539653683
H           -5.01857619622883        1.94269068040834       -2.58792866959872
H           -3.79360249810484        0.09818525219548        1.57540453719133
H           -1.47096657100247       -0.52344749952219        1.71958818743187
H            0.46181568116922       -0.79749484059601        2.10776082012630
