128
 energy: -201.629868718218 gnorm: 0.000049268022 xtb: 6.7.1 (edcfbbe)
O            7.63893582985334        0.63382448835911       -0.52411426683048
P            7.71726843120828       -0.12494595075533        0.72966231451089
C            9.23156472158859        0.21320695640963        1.67943451217818
C            9.69043944976602       -0.64190099337366        2.67354604951304
C           10.84831697370054       -0.33104390624530        3.36261293583116
C           11.54798597542391        0.82729533808503        3.06021491596711
C           11.09424123479668        1.67632712504333        2.06414838695530
C            9.93563875446580        1.36821078646598        1.37339736988961
C            7.74205363160144       -1.93538994583308        0.52193741166648
C            8.75943801366674       -2.43339558197163       -0.28162263600770
C            8.91067414389596       -3.79721361139401       -0.44247345122311
C            8.03766952129805       -4.66562844055784        0.19510570184535
C            7.01180182441868       -4.16895029835890        0.98124639782789
C            6.86405311868884       -2.80282490651278        1.15138516331880
C            6.35040291141398        0.21719967500991        1.88772039174236
C            6.47690238052528        0.39329751040812        3.25903760437533
C            5.37457926721034        0.68477145011833        4.05648151314634
C            4.10808879691006        0.82115263993242        3.51844846752956
C            3.95329348805432        0.65765859924714        2.14843249515103
C            5.07709879367957        0.35202609679201        1.35401728801199
O            4.75304566932723        0.22013906271752        0.04894096512395
C            3.41976583388305        0.46003450134314       -0.03724101769991
C            2.65082814521035        0.45240520160078       -1.18915748638581
P            3.31776410753312        0.14354005442521       -2.85626000552843
O            2.25472430538012       -0.19123682732565       -3.81333574060954
C            4.51941311079614       -1.20465416290952       -2.61696046204100
C            5.77399234284992       -1.19666699168322       -3.20412476749600
C            6.59256313046144       -2.30581169663711       -3.08361078790735
C            6.15577433409891       -3.42028187031520       -2.38866411196452
C            4.90413491636159       -3.42514461362510       -1.79496558411545
C            4.08471005348914       -2.31870599206156       -1.91233439729760
C            4.24258536327857        1.64730694666274       -3.27931238051982
C            3.74176879570369        2.41642365763379       -4.32085405953384
C            4.38322272308560        3.58610063899831       -4.68668951469462
C            5.52393572607911        3.98527721331453       -4.00901057184311
C            6.02263001952664        3.21565257908635       -2.96922002285005
C            5.38555902811041        2.04588043865667       -2.59662819798863
C            1.29888131788680        0.71508918107909       -1.05228077178678
C            0.70728291635132        0.98132750604946        0.18849235339762
C           -0.73513368563708        1.25447740383875        0.26989673284020
C           -1.63954110575015        0.55566956765357       -0.52653140354251
C           -2.99320965170107        0.81531861583708       -0.45208331675479
C           -3.48674199657063        1.77617238398706        0.42380355765498
C           -4.96397359428667        2.10933648315285        0.44262033148320
C           -5.84447752140322        0.89125098481802        0.25836617472819
C           -7.03483441144655        0.97213227215304       -0.45289952025558
C           -7.86123420490535       -0.12805702793134       -0.57668198889618
C           -7.51908045345327       -1.33225572469676        0.02963238736159
N           -8.35348620575057       -2.45136075268783       -0.09486591032681
C           -7.95807138075872       -3.71209975619029       -0.49507842307320
C           -6.70724305211926       -4.16138440650571       -0.89375601466720
C           -6.58866492106951       -5.48355389660611       -1.27663396530864
C           -7.68493742611803       -6.34332310256035       -1.27358396715915
C           -8.93631040022955       -5.89645786753245       -0.89962233828599
C           -9.08097577238724       -4.57120765698453       -0.51071710996573
C          -10.20465881677160       -3.78123220130692       -0.09215208241634
C          -11.55044763239773       -4.06212796011303        0.10360703373683
C          -12.38006041831511       -3.05054813861587        0.54399013304451
C          -11.88044407574938       -1.77596126777480        0.80281131816732
C          -10.54579592659345       -1.47187344392436        0.61566273550263
C           -9.71155272081372       -2.47839826843837        0.15046329449769
C           -6.33847311656536       -1.41372725738100        0.76183292206723
C           -5.51294130069436       -0.31253035507415        0.87115417073564
C           -5.41034761385396        2.81355291126833        1.71041013360262
C           -5.44444541274648        2.32590253563792        2.99907167836128
C           -5.91166490618733        3.15303723272074        4.01172806786834
C           -6.34062944608276        4.44216117587268        3.73515683816492
C           -6.31461969467460        4.93543420152700        2.44071484570555
C           -5.84862884333575        4.11479962089647        1.42691358673836
C           -5.70553781122101        4.35154212803628       -0.00044059227978
C           -5.97990812743190        5.47219257785620       -0.76682549786972
C           -5.73949627730588        5.41869954477395       -2.13021819783608
C           -5.23200536193652        4.26938287116772       -2.71686051074884
C           -4.95454079883306        3.14349417810557       -1.95331420926363
C           -5.19906644813576        3.18884491502040       -0.59762209559460
C           -2.58647201917570        2.48391795536294        1.20956650039093
C           -1.23180438651595        2.22334189167324        1.13781156974824
C            1.49366237022576        0.98924511144327        1.33560735682287
C            2.85205056017535        0.72880016534403        1.22323400635508
H            9.14409090123755       -1.54836254247779        2.89594661416904
H           11.20937847671068       -0.99341579366343        4.13596337207278
H           12.45254259861128        1.06456021485935        3.60067507149999
H           11.64436003519982        2.57494881466720        1.82661523263233
H            9.56360101692009        2.00687748951743        0.58507643776905
H            9.42520487944427       -1.73435672296612       -0.76996008828004
H            9.70744644486824       -4.18619983754186       -1.05966445438948
H            8.15597494707758       -5.73290977565149        0.07606700548210
H            6.32939967843377       -4.84816127830755        1.47138012703482
H            6.07278628311450       -2.41216014462531        1.77617705537287
H            7.45289468522035        0.30664354352942        3.71289783321760
H            5.51808727563612        0.81200993587465        5.11907238258210
H            3.25958688721450        1.05282493899866        4.14356996957388
H            6.10578184746181       -0.32751038079886       -3.75355530918536
H            7.57181229712059       -2.30374035310708       -3.53931153938524
H            6.79047535898926       -4.29042504135830       -2.31063381501429
H            4.56782728623753       -4.29527545249395       -1.24933189252186
H            3.09631709663381       -2.30955839539377       -1.46978080209915
H            2.85514762094181        2.07580651103647       -4.83649946239781
H            3.99714661695703        4.18462410926422       -5.49917869624758
H            6.02829787736299        4.89735885013428       -4.29464907223012
H            6.91616327394474        3.52265389680433       -2.44611223085060
H            5.78565595006842        1.44146194862717       -1.79748576785167
H            0.70128999082050        0.71925278733500       -1.95242133225669
H           -1.27952231293155       -0.20837087012475       -1.19918793646433
H           -3.67633133554352        0.25760645186123       -1.07631034555955
H           -7.31513814834553        1.90153325055333       -0.92604985922499
H           -8.77014803901861       -0.06198331523014       -1.15566964516660
H           -5.85514765907177       -3.49878989406203       -0.91618574930881
H           -5.62488919149951       -5.85787379773916       -1.58918834313063
H           -7.55042252843691       -7.37071720135659       -1.57787577318171
H           -9.78920638273728       -6.55830580951447       -0.91214566705672
H          -11.93424903326837       -5.05400451378112       -0.08218446614573
H          -13.43037656138019       -3.24719010640356        0.70024702523786
H          -12.55104523942372       -1.00876291911220        1.16125279612507
H          -10.16455492456267       -0.48592235529671        0.83569541013022
H           -6.07939781502339       -2.33932091004858        1.25402916125716
H           -4.59602299355086       -0.39170764861087        1.43681595451685
H           -5.11257793936479        1.32262173142344        3.22152878912621
H           -5.94155307849303        2.78689252996573        5.02749236586411
H           -6.70037721418697        5.06789531526229        4.53894636152084
H           -6.65129314673881        5.93901756186369        2.22736992707347
H           -6.37167749784609        6.36967755696174       -0.31169244963382
H           -5.94730604588966        6.28294436394790       -2.74409730637233
H           -5.04880131970757        4.24932029935624       -3.78099176760752
H           -4.55735020186087        2.25231726775025       -2.41580839422852
H           -2.94712726131962        3.24905647858875        1.88148406300503
H           -0.54812402416988        2.79903379408867        1.74446690174465
H            1.05408747506167        1.17512591572558        2.30363207334220
