128
 energy: -201.630969064356 gnorm: 0.000036304913 xtb: 6.7.1 (edcfbbe)
O            8.42698366746693       -2.07455677472449        2.87088419457703
P            7.45532026639292       -1.68212248214014        1.84161966737951
C            7.21768018458156       -3.00002815023108        0.60396573931205
C            6.13115228483775       -3.85930967100240        0.64663891196934
C            6.08662624634700       -4.95354094689025       -0.20064697217887
C            7.12574964538621       -5.18988294058392       -1.08558310284733
C            8.21327368321972       -4.33155683216817       -1.12650164961993
C            8.26235959568193       -3.24147598531198       -0.27793984288792
C            7.97066666731559       -0.19239176710278        0.93542663107705
C            8.75207369659896        0.71455826516909        1.63929279093454
C            9.24588366746501        1.83979219884131        1.00514630683016
C            8.96864714604550        2.04998698081701       -0.33630567613608
C            8.18886720570752        1.14420145357355       -1.03688121637965
C            7.68132533966487        0.02370063792040       -0.40361560548149
C            5.81160924949401       -1.38076547644502        2.56612448802175
C            5.64237942626095       -1.79716225750185        3.88103687133825
C            4.42494624798026       -1.68636474183421        4.54120391872246
C            3.32237351401528       -1.15489219106857        3.90088765170384
C            3.46806749315071       -0.72026860316182        2.59004579488678
C            4.70906699717204       -0.82728605489677        1.93112553122368
O            4.64727423149060       -0.33450982921459        0.66518214913046
C            3.36594968630301        0.09483482338809        0.48247887609172
C            2.81894655820176        0.67902156268732       -0.65144985606286
P            3.68851063449726        1.13746896077937       -2.18401842042588
O            2.76436752814460        1.41830009280291       -3.28982989923619
C            4.83190842935248       -0.22018285018952       -2.58643977128008
C            5.90544304518431        0.07177987729248       -3.41572163843911
C            6.74532581458902       -0.94137365049048       -3.84144008534217
C            6.49886537887395       -2.24839382539471       -3.45197140879706
C            5.40696691309686       -2.54345246909138       -2.65248314873683
C            4.57101753036483       -1.53023790405679       -2.21754765508966
C            4.70167498876404        2.58096384285283       -1.73319056573618
C            5.45453235715980        2.64764340196786       -0.56901302984524
C            6.17276547699745        3.79444239297696       -0.28378376585741
C            6.14941642170373        4.86786771992703       -1.15999013026446
C            5.39939881745059        4.80140262177298       -2.32316581353537
C            4.67038268572481        3.66050635906858       -2.60579489633521
C            1.47266153277432        1.00792988764613       -0.61022287998506
C            0.66958685968796        0.78483652938961        0.51230171952689
C           -0.75561309275820        1.14294481134123        0.48345323947126
C           -1.18951659777812        2.30492747473622       -0.14889694333044
C           -2.53095463564929        2.63306859442523       -0.18286818150104
C           -3.47933400788188        1.80353537327318        0.40148880795927
C           -4.94637954318250        2.17925475124368        0.41350993191174
C           -5.85288393885322        0.97419682861517        0.26994645990414
C           -7.06276812422765        0.90182377082503        0.94808190867793
C           -7.90364922031333       -0.18179856332485        0.78078215239785
C           -7.55639028195434       -1.20965429538383       -0.08969485697518
N           -8.40217993941932       -2.31435498210126       -0.25731985827224
C           -9.75451849595542       -2.26459740274998       -0.53003806834778
C          -10.57053275011253       -1.16532712821285       -0.75604558159111
C          -11.90272005259785       -1.39877412210432       -1.03809560990663
C          -12.41731101190090       -2.69184350133435       -1.10405244169246
C          -11.60526626435019       -3.78998864076217       -0.90381715372171
C          -10.26227318288196       -3.58120859978752       -0.61888438740479
C           -9.15406752673410       -4.46276820101245       -0.38075389429624
C           -9.02768594980266       -5.84437344215715       -0.32125178822566
C           -7.78829901172323       -6.38401945531460       -0.04155739408277
C           -6.68631820640516       -5.56414278271438        0.19145449764829
C           -6.78682804176662       -4.18724050331160        0.13769235465952
C           -8.02498197347925       -3.63920957735904       -0.16573786763266
C           -6.35712093544998       -1.13053523140130       -0.79136790433348
C           -5.51708942531161       -0.05044632656563       -0.60893742129743
C           -5.20617005479083        2.98580611971840        1.67216953291363
C           -5.02088263873461        2.61325047239550        2.98618703021532
C           -5.31310166879802        3.53135979085128        3.98590129664521
C           -5.77715903952327        4.79967830503319        3.67221083126691
C           -5.95870696635606        5.18188285689251        2.35296135021943
C           -5.66949693722946        4.26949587694166        1.35179986475589
C           -5.75700459835085        4.38301590384647       -0.09498403048582
C           -6.16902486356908        5.43272267834592       -0.89921014181749
C           -6.14871474988166        5.26298852329917       -2.27406288530968
C           -5.72667701752157        4.06729155159743       -2.83496689855868
C           -5.31404071693687        3.01138977309236       -2.03336240939503
C           -5.32702918816050        3.17654879281075       -0.66500937629716
C           -3.04740393581327        0.65036084450905        1.04756050429657
C           -1.70696352452433        0.32377484579998        1.08663332802083
C            1.23605286093192        0.21997034711474        1.64866674625244
C            2.57870290074292       -0.12523953620452        1.62898152600463
H            5.32714667172556       -3.67677397352401        1.34676920617460
H            5.24258647428333       -5.62759315814752       -0.16487505324688
H            7.09049789940633       -6.04796652521915       -1.74109580152323
H            9.02703432576427       -4.52088080256556       -1.81127030146732
H            9.11276230480811       -2.57244370167650       -0.28189528991998
H            8.97786764454850        0.51049537322388        2.67651548879994
H            9.85469982375871        2.54605663616381        1.55080820560423
H            9.36264053637879        2.92088990614755       -0.83955626597725
H            7.97771936689578        1.30949936618509       -2.08250213604489
H            7.07043135703957       -0.68386583280955       -0.94374692780657
H            6.50205978570263       -2.21793645589223        4.38184922596567
H            4.34279992760233       -2.02542182744933        5.56263020059401
H            2.36936590590801       -1.07179079624799        4.40006247602175
H            6.06591758639119        1.09722412258229       -3.72346998422776
H            7.58767276232930       -0.71639590133532       -4.47940365089395
H            7.15229032944233       -3.04255783479580       -3.78110110447590
H            5.20736668252879       -3.56578338433104       -2.36913059994941
H            3.71201542404007       -1.75490791313154       -1.60066424081517
H            5.48607101018013        1.80730386628585        0.10577132728241
H            6.75486739579983        3.84874118836054        0.62451600298562
H            6.71450911050214        5.76009519756896       -0.93291190954818
H            5.37972678913127        5.63945775912224       -3.00448069821802
H            4.06345616385457        3.58730244247910       -3.49716853237132
H            1.04236483203623        1.42958242964451       -1.50724589009496
H           -0.46743954010673        2.96750056721244       -0.60217058783054
H           -2.84404914785394        3.54360717328679       -0.67212967238675
H           -7.34729838553172        1.69390510537073        1.62479105855672
H           -8.82788789754808       -0.24227197965823        1.33564333008839
H          -10.17715469563212       -0.16029970758725       -0.72489180387534
H          -12.55932204568964       -0.55957456948925       -1.21507275416956
H          -13.46514696423361       -2.83195590819334       -1.32445672873393
H          -12.00022910907805       -4.79254867101430       -0.97069108673301
H           -9.88520696098468       -6.47902652535413       -0.48682893686374
H           -7.66788431255076       -7.45609542531103        0.00699967594038
H           -5.73228724524317       -6.01501616613971        0.42250892410360
H           -5.93044864112652       -3.56030187751543        0.33597360400976
H           -6.09426514807002       -1.91272761293811       -1.48781189096594
H           -4.58518225077223       -0.00641192976121       -1.15336494871488
H           -4.65911873758014        1.62720131189696        3.23728912312736
H           -5.17680877410655        3.25367977427640        5.02078514471217
H           -5.99786937315262        5.49769092468724        4.46656570061634
H           -6.31748211558733        6.17119019603568        2.11107712273846
H           -6.49961944616207        6.36418835157925       -0.46433474568487
H           -6.46591835222579        6.07064342881694       -2.91746236941599
H           -5.71847251437159        3.95494926288355       -3.90907349811122
H           -4.98663550508411        2.08341132422261       -2.47773665500002
H           -3.76888445539249       -0.00671215191890        1.51157991065482
H           -1.39626697890084       -0.59108223904524        1.57005948836784
H            0.64928882478639        0.06416564680957        2.54071894907116
