108
 energy: -160.144870308252 gnorm: 0.000135629171 xtb: 6.7.1 (edcfbbe)
C            9.33629453880919        2.44126466640703        0.62391638416221
C            8.56989720166072        1.42387841270480        1.47720417883680
C            7.66553741267492        2.14962631771205        2.47119410890252
C            9.56231834722439        0.52763062240576        2.22459361439171
C            7.75594235438750        0.55823028860143        0.53872975107491
N            6.45551820425838        0.59043420683463        0.62173751126553
C            5.75777418916707       -0.18426422562392       -0.25246256252674
C            4.34272664731881       -0.17746300150712       -0.22000256033843
C            3.57618674461786       -0.97127468608929       -1.12459535588078
C            2.20919187422986       -0.94650266683459       -1.09566433548999
C            1.51805748563951       -0.14401997028649       -0.17933775485578
N            0.11657459203957       -0.11118386331117       -0.15944606318023
C           -0.65458264466737        1.02267222305134       -0.21513554544958
C           -0.27670205949369        2.34718251319252       -0.41149603327423
C           -1.25896170064213        3.30914957728392       -0.42439071566409
C           -2.61819243917424        2.98180871610221       -0.24799951395105
N           -3.57579163247669        3.98941421421233       -0.23506801409429
C           -3.27284856135184        5.24285228844682        0.31257999283688
C           -2.46671013647738        5.34237027022624        1.44816991169151
C           -2.17401520913380        6.58217364596875        1.98244240036476
C           -2.68128432263221        7.73459510224510        1.40210658034626
C           -3.48605479801404        7.63967905112010        0.27724996633925
C           -3.78084656833648        6.40556925352413       -0.26904673041984
C           -4.85766965815436        3.75069941372304       -0.74726005496844
C           -5.02480945655349        2.97396195810138       -1.89530975771295
C           -6.29091269280578        2.73649198370076       -2.39403325436256
C           -7.40429453260980        3.27236101089014       -1.76544170427792
C           -7.24265238353146        4.05047725411449       -0.62954954603296
C           -5.98144676074417        4.28890310511791       -0.11834203622220
C           -3.00201740189174        1.64661829225192       -0.09616189607478
C           -2.02486055467114        0.67122100344656       -0.09238410049460
C           -2.06252622908183       -0.76166974090450        0.01523596582997
C           -3.09156593797403       -1.67466687764610        0.13577359510650
C           -2.77999075979374       -3.03446942435775        0.22102042022509
N           -3.79936877143029       -3.97492692953042        0.32291714632853
C           -5.02322928365366       -3.75738015139249       -0.32391829973491
C           -5.05889364414417       -3.17315657719764       -1.59127956589588
C           -6.26870493185941       -2.96027870861860       -2.22308830840901
C           -7.45554941577837       -3.32945169409845       -1.60908454836150
C           -7.42459922288669       -3.91494361933420       -0.35291949069047
C           -6.22050215793425       -4.12804936501771        0.29012117412650
C           -3.61715672505156       -5.14464415860364        1.07227983477891
C           -2.92273704410454       -5.10877535842789        2.28242038696815
C           -2.75258092318454       -6.26604257553623        3.01755199441528
C           -3.27222731016803       -7.46857175637370        2.56389317027655
C           -3.96452232479483       -7.50797052393918        1.36346937235091
C           -4.13703405385473       -6.35753531768477        0.61840802942786
C           -1.43436858266666       -3.45101750859291        0.20484954394243
C           -0.40050590305261       -2.55005930876483        0.08558270678196
C           -0.71212926729332       -1.19910492637044       -0.02671346800642
C            2.26942502167031        0.63914858018421        0.74456542312988
C            1.62112528204825        1.39281889982349        1.73642849933159
N            1.09649252471152        1.99602577935837        2.56610497179816
C            3.65017524079274        0.61536494583293        0.71020989759428
N            6.40208597753495       -0.96345753825029       -1.16228145844194
C            7.70537303196038       -0.93269062336955       -1.15708176663699
C            8.45999972808196       -1.79226988516566       -2.14914558605009
C            9.30428200110642       -0.86699771058600       -3.03238270063769
C            7.49433401521651       -2.60287400849218       -3.01116878214221
C            9.37884781168728       -2.73229666487486       -1.36139477803824
N            8.45315320338517       -0.18544392318227       -0.33263750833941
H            8.64207373873926        3.08593405575699        0.08690226298395
H            9.96927879664449        3.05992638019091        1.25640840192132
H            9.95796748607876        1.92229128483067       -0.10171475465812
H            8.26458900015840        2.76889010794445        3.13533804496878
H            7.10433130030708        1.43359433169827        3.06719785483980
H            6.95360510488607        2.78113261039603        1.94523894485831
H           10.18306676980094       -0.01034585697087        1.51265726743154
H            9.03102430430339       -0.19840218478600        2.83802815871065
H           10.19904788582061        1.12962338007384        2.86922442278899
H            4.10953246846713       -1.58085738492896       -1.83605142119302
H            1.63840697611148       -1.53266259638999       -1.80206170955520
H            0.75714957259346        2.61530388765819       -0.56603129770467
H           -0.98965460704460        4.34140087490780       -0.58682266554512
H           -2.07879399594836        4.44602443218211        1.90925317537967
H           -1.55113927805345        6.64602610306335        2.86222089337658
H           -2.45086911771576        8.70078863777456        1.82452322531286
H           -3.87993765760243        8.53358465913781       -0.18300599104289
H           -4.39583491258266        6.33350084866455       -1.15385699401986
H           -4.15598914297591        2.57122819115767       -2.39452821744953
H           -6.40790167832026        2.13716913643619       -3.28457915817632
H           -8.39175981281760        3.08675706609110       -2.15959330081606
H           -8.10548525025692        4.46787962970198       -0.13227297893664
H           -5.85757704544918        4.88260495610316        0.77506885705437
H           -4.04071428908930        1.38732563262809        0.03635673702091
H           -4.11793251074797       -1.34568008098324        0.18001452384044
H           -4.13370883227307       -2.89994582684919       -2.07677946872827
H           -6.28384439281110       -2.51192912256598       -3.20536495321293
H           -8.39872014638737       -3.16354570532972       -2.10695789042319
H           -8.34515147962145       -4.20117934123302        0.13363351424282
H           -6.19821695825253       -4.57310932819392        1.27378875314993
H           -2.52961818099404       -4.16959281085560        2.64297494156042
H           -2.21749397139009       -6.22666989050920        3.95479199767709
H           -3.13822404701411       -8.36976612856873        3.14268291314799
H           -4.36631374920058       -8.44246104387102        1.00098052232859
H           -4.66638350753980       -6.39017488165886       -0.32236733526424
H           -1.21468852215733       -4.50539293976429        0.27150183591625
H            0.62456817235353       -2.88606589896603        0.07179232082569
H            4.22090930227952        1.20475697203074        1.41302485568215
H            9.89576175318582       -1.45339502434102       -3.73219116910506
H            9.97213908906308       -0.27258585170830       -2.41384615705270
H            8.66322678379500       -0.19146634913994       -3.59674985558114
H            8.05112349154946       -3.21502992313424       -3.71735472543748
H            6.88230163881606       -3.25000065336313       -2.38747319689269
H            6.83160674558478       -1.94028332584805       -3.56244119744964
H           10.04356042523157       -2.15289502945842       -0.72548625392511
H            8.79113232490997       -3.39776039538398       -0.73085900450505
H            9.97452116895739       -3.33403229285705       -2.04441464236708
