108
 energy: -160.144864221846 gnorm: 0.000103425126 xtb: 6.7.1 (edcfbbe)
C            9.32453251421824        2.46140768974648        0.61217048686800
C            8.56485435965927        1.43775353175938        1.46397901107933
C            7.66025755918465        2.15619135915754        2.46306423075062
C            9.56320333328339        0.54318157350292        2.20543578393940
C            7.75179944359432        0.57206123050732        0.52476946629650
N            6.45149688272732        0.59877076044602        0.61172851570945
C            5.75428102317996       -0.17517824305068       -0.26356803271817
C            4.33931722942535       -0.17348823077189       -0.22756110252073
C            3.57335680692299       -0.96592521717377       -1.13385058784146
C            2.20636258264631       -0.94491000413784       -1.10249168411051
C            1.51475801026817       -0.14779886099125       -0.18186627195689
N            0.11323250887085       -0.11643150318050       -0.16146777442126
C           -0.65862567432467        1.01702158551195       -0.21496216231675
C           -0.28101829866751        2.34238146717427       -0.40589127934164
C           -1.26381360182511        3.30376525877135       -0.41763859085834
C           -2.62325849596297        2.97495975061896       -0.24575218707856
N           -3.58112665613029        3.98232694153153       -0.23198603030125
C           -3.27901713577411        5.23386446642063        0.32070321350617
C           -2.47777258751820        5.32881621772793        1.46012835530937
C           -2.18573981421812        6.56656450595754        1.99949227862010
C           -2.68862451200903        7.72147121510782        1.42028329903072
C           -3.48838205606562        7.63110115298604        0.29149424737203
C           -3.78258508492383        6.39905420037125       -0.25977478473605
C           -4.86101618888457        3.74668939060892       -0.75023277401485
C           -5.02467892631082        2.97268310834641       -1.90064696687998
C           -6.28895239942460        2.73979838793379       -2.40612379484699
C           -7.40397266603724        3.27744712740794       -1.78199477767871
C           -7.24583363173251        4.05238619412732       -0.64343788424481
C           -5.98654612082237        4.28617231231154       -0.12546616945742
C           -3.00669296375701        1.63908731563568       -0.09903379452435
C           -2.02889625633625        0.66426547170916       -0.09597812494012
C           -2.06563575008653       -0.76899923476157        0.00741840833865
C           -3.09406181041052       -1.68324830000312        0.12346554986979
C           -2.78140682956684       -3.04298988100921        0.20586476798378
N           -3.80018625460635       -3.98458503633264        0.30331425577944
C           -5.02237928337835       -3.76667365801954       -0.34652717242478
C           -5.05466401514207       -3.18011375135262       -1.61290967767230
C           -6.26274075742070       -2.96645995993243       -2.24775046413541
C           -7.45118451139901       -3.33716936906940       -1.63776352328131
C           -7.42356662040025       -3.92507428620923       -0.38264243262677
C           -6.22122537515207       -4.13899695029705        0.26341544547007
C           -3.61905217045464       -5.15529850880492        1.05129836775929
C           -2.92755975146238       -5.12079480379639        2.26317162514926
C           -2.75867746141938       -6.27899697970164        2.99711053482189
C           -3.27668283128198       -7.48113384818777        2.54053289117913
C           -3.96587418756286       -7.51922384537838        1.33828317110934
C           -4.13707542882340       -6.36784571745119        0.59438327345735
C           -1.43542404607984       -3.45840720398290        0.19121681007974
C           -0.40215256194923       -2.55625932851958        0.07600978706769
C           -0.71480619049881       -1.20529372380572       -0.03333334140454
C            2.26556566714032        0.63295079519502        0.74448894062334
C            1.61658081599406        1.38016421156648        1.74079310844299
N            1.09116471646816        1.97753456755373        2.57413668171244
C            3.64630144950437        0.61303577994720        0.70766891422142
N            6.39899504140105       -0.94849623606649       -1.17812604991751
C            7.70215996901159       -0.91265679464854       -1.17654388048363
C            8.45709784515772       -1.76587720141738       -2.17384797891911
C            9.29343440869212       -0.83397242948902       -3.05767375463076
C            7.49195327843244       -2.57868215691556       -3.03439845528791
C            9.38360220275365       -2.70378125839493       -1.39257294255385
N            8.44938376776065       -0.16540628671263       -0.35157427940487
H            8.62606296296692        3.10468221631258        0.07900338844773
H            9.95632442739542        3.08085551255081        1.24509174583743
H            9.94669600476709        1.94758294872071       -0.11669796990824
H            8.25843776485490        2.77653426085445        3.12698211388515
H            7.10461667733878        1.43568986422356        3.05889691209693
H            6.94343680396311        2.78561041199902        1.94126831020033
H           10.18495617938603        0.01109801451807        1.48995952209628
H            9.03675060282633       -0.18788735612276        2.81706006790094
H           10.19847484653102        1.14558783362619        2.85112277863182
H            4.10710781230396       -1.57105544125083       -1.84878487457032
H            1.63584545534090       -1.52953289842896       -1.81038344489738
H            0.75302588010740        2.61164710409401       -0.55707545505034
H           -0.99475992217424        4.33675020619729       -0.57575692046839
H           -2.09290366099695        4.43058934117866        1.92007868838533
H           -1.56679542477065        6.62685275568548        2.88229172913745
H           -2.45870774149677        8.68605204875176        1.84664918245894
H           -3.87875600234772        8.52695203137071       -0.16796030084877
H           -4.39359594689034        6.33056116526075       -1.14761809936805
H           -4.15459708440727        2.56874727470780       -2.39665893607033
H           -6.40315617315197        2.14276635039114       -3.29857098176043
H           -8.38995204367361        3.09567125099327       -2.18161726766844
H           -8.10998195270167        4.47106473626005       -0.14952344290951
H           -5.86553350546004        4.87752292099921        0.76988878705669
H           -4.04558439147103        1.37883909392500        0.03010368272089
H           -4.12082791764421       -1.35537504651779        0.16662351101996
H           -4.12819742090857       -2.90564762395946       -2.09524164707899
H           -6.27523206149220       -2.51625267371268       -3.22921777869974
H           -8.39301312626110       -3.17061902134410       -2.13796370286241
H           -8.34539213245108       -4.21257668986867        0.10074372779270
H           -6.20157639422519       -4.58590940507404        1.24629770268757
H           -2.53581674405644       -4.18191794340912        2.62600932315845
H           -2.22593009542216       -6.24066518604067        3.93572760912783
H           -3.14354962832534       -8.38310380018265        3.11832832408061
H           -4.36631942196969       -8.45340885448252        0.97352262751701
H           -4.66423243864618       -6.39939248047584       -0.34766883571286
H           -1.21505955935574       -4.51278244989788        0.25562916080866
H            0.62328415859375       -2.89121669671790        0.06299466835232
H            4.21672194856164        1.20077280452276        1.41212685185106
H            9.88515712931290       -1.41549612089590       -3.76133128979641
H            9.96069420894639       -0.23799801124369       -2.43997502603439
H            8.64690198203154       -0.16007518964993       -3.61772563523915
H            8.04887363374846       -3.18601818397451       -3.74462763972823
H            6.88563944201900       -3.23066074891288       -2.41015367562671
H            6.82375169642372       -1.91774525188497       -3.58101809327286
H           10.04827449150588       -2.12305797883654       -0.75784623804132
H            8.80161134855507       -3.37366927797383       -0.76141378447476
H            9.97918849377324       -3.30088958446424       -2.07972691919545
