108
 energy: -160.208302158722 gnorm: 0.000119700411 xtb: 6.7.1 (edcfbbe)
C            9.33772975070214        2.48478456054075        0.48132130964705
C            8.60014380945742        1.47853525267853        1.37522365631598
C            7.70863237247924        2.21624656082663        2.37209598474553
C            9.61981546256314        0.60752446144888        2.11811168597095
C            7.78079693843708        0.58934530270155        0.47537006041088
N            6.46031339108162        0.62900464193084        0.56976193171711
C            5.79522537364327       -0.17576808002483       -0.25555472263762
C            4.33495792551686       -0.16649461676776       -0.19583296110616
C            3.58575191560904       -1.00035410822527       -1.03203234422645
C            2.20960830158853       -0.98130669858734       -0.99035337547593
C            1.53146964103612       -0.12842865005947       -0.11584595007614
N            0.14647166268636       -0.09635888181627       -0.09481152456501
C           -0.64236935040529        1.04626607630816       -0.11483196778993
C           -0.28115283804558        2.37160679959832       -0.30517770583930
C           -1.28177044278439        3.32008570110892       -0.33848010511283
C           -2.63330602233976        2.97633148360499       -0.18331598788579
N           -3.60961721477143        3.97919366254659       -0.19636203290788
C           -3.34800584988712        5.21313158153296        0.41250494916831
C           -2.58579535375146        5.28062038739963        1.57929092366030
C           -2.32183944233359        6.50196361813815        2.16879220928648
C           -2.81881857187203        7.67148665218969        1.61616293350420
C           -3.58188314817810        7.60955717879729        0.46121199324611
C           -3.84201913370342        6.39410688240517       -0.14212789576123
C           -4.85380315162955        3.73736534910901       -0.79218834790692
C           -4.94372118295185        2.97545161323124       -1.95768469156891
C           -6.17326893893238        2.73028605827015       -2.53791272805216
C           -7.33018674088158        3.24710687957746       -1.97712150285042
C           -7.24642556325790        4.01106176667715       -0.82420692710158
C           -6.02235234134868        4.25183023253756       -0.23006035265329
C           -2.99598560719598        1.64071216147006       -0.03918020491680
C           -2.00107663051812        0.67764022690315       -0.02545138936158
C           -2.03406658808791       -0.75896467894904        0.04652774372874
C           -3.07069431026106       -1.66945256587996        0.16097253387415
C           -2.77043809215214       -3.02781214115269        0.20662788967637
N           -3.79926059041831       -3.97385063955973        0.28467639694514
C           -4.99636465801725       -3.75793334464826       -0.41024688694525
C           -4.98388729023950       -3.17234541711497       -1.67659261427627
C           -6.16703147801464       -2.95342544848777       -2.35530855401068
C           -7.37839733451677       -3.32133863427279       -1.79197266737032
C           -7.39650457292324       -3.90847215758465       -0.53704860352240
C           -6.21900858806920       -4.12305463029685        0.15346512410260
C           -3.64020565333518       -5.12455871835190        1.06600406946336
C           -2.96157199580900       -5.06705839261920        2.28366396271471
C           -2.80416412214129       -6.20750068674217        3.04770142111813
C           -3.32473742469924       -7.41798330262124        2.61891794706296
C           -4.00265194131440       -7.48012698815140        1.41187605910067
C           -4.15743616072005       -6.34706088659464        0.63665302511684
C           -1.43246068088681       -3.44849864146906        0.17396759421015
C           -0.38939337039078       -2.54921346861379        0.08049134672118
C           -0.69393012124266       -1.19921550333544       -0.01066572228349
C            2.28738451467808        0.69528606777500        0.74598567952203
C            1.66294281806757        1.49322965261818        1.73084599925457
N            1.19426830451977        2.11635947768535        2.57323361304227
C            3.67738034353260        0.67381810684894        0.69472074284866
N            6.37591416659870       -0.98727165818875       -1.13604625634424
C            7.69953963589777       -0.95474796911582       -1.16613611971667
C            8.42460178342270       -1.84291234281030       -2.14459746205454
C            9.27745297317440       -0.94922609665288       -3.05383397194542
C            7.43598097611046       -2.65457946719871       -2.97923040703327
C            9.33670958618756       -2.78094301814097       -1.34371534619884
N            8.43985348683216       -0.18237286309275       -0.38034993624018
H            8.62675202027815        3.10727761274055       -0.05927052917996
H            9.96843857606098        3.12676409788381        1.09110491672071
H            9.95924709672591        1.95959303177630       -0.23962407471255
H            8.31755651359482        2.84966284852610        3.01227324176852
H            7.16440879208908        1.50908883555251        2.99344818614411
H            6.98475794565449        2.83645575679837        1.84983197748521
H           10.23648412820960        0.06515812214472        1.40639632317399
H            9.11202944152635       -0.11218043851578        2.75781434505457
H           10.25852672084300        1.23260189583805        2.73695046819086
H            4.10965011410854       -1.64557554818535       -1.71926410731423
H            1.63635113881375       -1.60502963101059       -1.65873599577527
H            0.74793882103616        2.66695000682795       -0.44346087749540
H           -1.02318541353636        4.35710540909994       -0.49046105605494
H           -2.20135959086185        4.37150764021302        2.01861109120930
H           -1.72951435313220        6.53755006619607        3.07160937396094
H           -2.61370376888768        8.62356558934670        2.08229839087173
H           -3.97013677801227        8.51612591408699        0.01992114504658
H           -4.42776416406458        6.35096777283025       -1.04893948021471
H           -4.04280654245759        2.57939102094365       -2.40337423337261
H           -6.22681214618503        2.13811588641036       -3.44003219865515
H           -8.28916919890129        3.05710382774267       -2.43534494501382
H           -8.14293420665232        4.41532279612005       -0.37682543524165
H           -5.96284294956849        4.83789745386433        0.67550837486710
H           -4.03375491400365        1.36015019768927        0.05238571780998
H           -4.09449270689415       -1.33312369734175        0.21378432501276
H           -4.04090439487955       -2.89208312489270       -2.12279091908200
H           -6.14137017140338       -2.49997847081854       -3.33563936304354
H           -8.30106837056609       -3.15177423457876       -2.32639920742488
H           -8.33619248469661       -4.19431772377414       -0.08695404398580
H           -6.23837176543416       -4.57177823292778        1.13604275347299
H           -2.56359963406795       -4.12271109140128        2.62601970568765
H           -2.27884055217117       -6.14764179149772        3.98997456055093
H           -3.20330335586184       -8.30608482840722        3.22082316283610
H           -4.40718569091174       -8.42040056607475        1.06614086904790
H           -4.67873360960875       -6.40020332903057       -0.30811639681392
H           -1.21786035093217       -4.50540253337475        0.22285283921541
H            0.63055881133429       -2.90102433105885        0.07781338738598
H            4.25537013761393        1.30244355223009        1.35467682382925
H            9.84778241555085       -1.56339941737319       -3.74608486925203
H            9.96565229827254       -0.35685274137469       -2.45651029073195
H            8.64477234743264       -0.27395712265628       -3.62729089246233
H            7.97701212384881       -3.28714351301705       -3.67849955047392
H            6.82307258757284       -3.28264280177162       -2.33786191987908
H            6.77815928673893       -1.99402235501590       -3.53829321428940
H           10.02485287880344       -2.20202886021968       -0.73322363469131
H            8.74646716864254       -3.42100475466123       -0.69023971024473
H            9.90791876559816       -3.40923127738318       -2.02248831433518
