  53
        -86.34218121
 O          1.5573662225       -2.8380548976       -1.0758371560
 C          1.3094304913       -1.6806710688       -0.7969464685
 C         -0.0823841782       -1.2183587675       -0.5755563492
 C         -0.3948691952       -0.2221505068        0.3484925769
 C         -1.7063639415        0.1531074043        0.5524955449
 C         -2.7326130300       -0.4492883157       -0.1752925328
 N         -4.0565284573       -0.0526989146        0.0208073568
 C         -5.1338455115       -0.8949030984        0.2323419186
 C         -5.1676962179       -2.2769181612        0.3475373943
 C         -6.3894876967       -2.8738614728        0.5947048555
 C         -7.5525097254       -2.1207698426        0.7361134966
 C         -7.5201059775       -0.7432149248        0.6504411393
 C         -6.3040853546       -0.1210459696        0.4016435666
 C         -5.9080315072        1.2543684153        0.2770463948
 C         -6.6039323879        2.4547978764        0.3249608456
 C         -5.9071187771        3.6313014219        0.1344781025
 C         -4.5377383361        3.6186891127       -0.1186773766
 C         -3.8239408593        2.4363167373       -0.1707774285
 C         -4.5135641728        1.2527237683        0.0481140727
 C         -2.4248068299       -1.4538827334       -1.0926653347
 C         -1.1149134349       -1.8418576040       -1.2752379023
 C          2.3848655694       -0.6671499650       -0.6594991479
 C          2.1788926768        0.6760929826       -0.9997269879
 C          3.1999441265        1.5961711084       -0.8892581392
 C          4.4356005598        1.1699191488       -0.4251243861
 S          5.8428711518        2.1753847845       -0.1954897740
 C          6.7727554370        0.7938369466        0.3504676335
 C          8.0993321433        0.8160862528        0.7468828020
 C          8.6837335715       -0.3692797249        1.1504379838
 C          7.9563496373       -1.5557349424        1.1565120671
 C          6.6344235246       -1.5757739867        0.7615212906
 C          6.0232363337       -0.3939812297        0.3527178433
 C          4.6706843134       -0.1777798059       -0.0934166198
 C          3.6354823964       -1.0913894905       -0.2282329193
 H          0.3890006621        0.2349578130        0.9343819485
 H         -1.9495283555        0.9015724440        1.2915868612
 H         -4.2702871610       -2.8706221501        0.2625186505
 H         -6.4418130935       -3.9487929631        0.6844728747
 H         -8.4880707126       -2.6251702789        0.9263933408
 H         -8.4173038724       -0.1568991169        0.7792006721
 H         -7.6685072447        2.4622571529        0.5035740443
 H         -6.4285909831        4.5761472353        0.1702179562
 H         -4.0220969512        4.5533283807       -0.2829129801
 H         -2.7666037162        2.4384445001       -0.3889280679
 H         -3.2161087263       -1.9113208151       -1.6668667764
 H         -0.8643768691       -2.6223515408       -1.9780355902
 H          1.2175666696        0.9894811238       -1.3781090490
 H          3.0475490265        2.6299613508       -1.1580234609
 H          8.6564960822        1.7399334204        0.7384424795
 H          9.7166266455       -0.3734136567        1.4642285671
 H          8.4341805097       -2.4701583859        1.4745806272
 H          6.0718115091       -2.4966919370        0.7652903447
 H          3.7826061681       -2.1346472816        0.0067671614
