53
 energy: -86.342220600763 gnorm: 0.000031388011 xtb: 6.7.1 (edcfbbe)
O            1.55633830659056       -2.82826560181634       -1.07356331231238
C            1.30918256090666       -1.67095929137611       -0.79347752891311
C           -0.08226742666304       -1.20864077160324       -0.57084645475521
C           -0.39418387898102       -0.21239993990109        0.35340457475990
C           -1.70592136620691        0.16050352746032        0.56074683226986
C           -2.73283644126186       -0.44394468147369       -0.16439029335892
N           -4.05727991694990       -0.05020172530078        0.03357961225183
C           -5.13362286885743       -0.89542383367526        0.23799811343170
C           -5.16340496368852       -2.27714368662367        0.35795196038574
C           -6.38517153572726       -2.87767407320574        0.59648009316777
C           -7.55217546391920       -2.12831965747723        0.72446271702471
C           -7.52390532422276       -0.75095533269755        0.63485343355258
C           -6.30783596531608       -0.12517431616133        0.39535866682300
C           -5.91506906413157        1.25124150707030        0.27160454762307
C           -6.61534074104112        2.44939129266021        0.31193388733243
C           -5.92072345874473        3.62805404840379        0.12639322106759
C           -4.54905192265687        3.61964362309790       -0.11426691167809
C           -3.83101032372059        2.43952300879679       -0.15913419927284
C           -4.51868514724697        1.25381218176943        0.05441751606789
C           -2.42536459206113       -1.44798643980710       -1.08255026962426
C           -1.11536331222050       -1.83383632231261       -1.26817766606213
C            2.38618117532500       -0.65919851031800       -0.65499282334070
C            2.18477674018836        0.68361906705129       -0.99959566552434
C            3.20951948462115        1.60017690939789       -0.89346505480398
C            4.44405525433821        1.17099123445085       -0.42880105103661
S            5.85686797700464        2.17070228846142       -0.20810594941878
C            6.78178064931396        0.78743146409842        0.34207304736911
C            8.11024681307214        0.80462700313879        0.73234748377364
C            8.68982356187425       -0.38159769125157        1.14003996140480
C            7.95571012640938       -1.56388480587012        1.15717068825333
C            6.63206277476208       -1.57897523803544        0.76805919359175
C            6.02605723276554       -0.39638095293155        0.35401137779325
C            4.67369392616938       -0.17606143414345       -0.09055332283816
C            3.63503657900615       -1.08620367051725       -0.22134409768306
H            0.39057989758551        0.24683103467468        0.93646856608438
H           -1.94858688569093        0.90811620137787        1.30087061825855
H           -4.26304767325022       -2.86771605387064        0.28261432369734
H           -6.43445336574349       -3.95242243794198        0.68988740645091
H           -8.48772679059632       -2.63545616843565        0.90728368677179
H           -8.42443723829679       -0.16758924524245        0.75323108916406
H           -7.68164368009327        2.45340170563122        0.47985820421008
H           -6.44546705993749        4.57122962192656        0.15673003431588
H           -4.03474828825495        4.55586630773427       -0.27366716015889
H           -2.77168912575185        2.44523272780847       -0.36714804046408
H           -3.21730388798872       -1.90721573133254       -1.65444430987552
H           -0.86528865560815       -2.61386337470835       -1.97163506739100
H            1.22436233957125        0.99913630359141       -1.37868523837135
H            3.06113264038040        2.63330857501627       -1.16693502988783
H            8.67277639301666        1.72509428917794        0.71532748025610
H            9.72440511593058       -0.38995102736969        1.44807657669367
H            8.42974461057219       -2.47891967586143        1.47881444681351
H            6.06399768356358       -2.49648616947831        0.78040214956989
H            3.77824988042111       -2.12892035080969        0.01816808686013
