  93
       -144.94920610
 C         -7.5633171990       -5.2201123700        0.1110875180
 C         -6.6089096057       -5.2442773529       -0.8934099431
 C         -5.6767648053       -4.2300432088       -0.9885321442
 C         -5.6905705781       -3.1694593411       -0.0823590442
 C         -4.6843247114       -2.1270175129       -0.2092410576
 N         -3.4772969131       -2.3992164606       -0.7263808131
 C         -2.7663210483       -1.2705047236       -0.7016575532
 C         -1.4441513646       -1.1662066386       -1.1689569943
 C         -0.6343410350       -2.3454630876       -1.1542470218
 C          0.7170800389       -2.2519723866       -1.1902021285
 C          1.3771980803       -0.9826205802       -1.2438667348
 C          2.7507958517       -0.8681189489       -0.8848141682
 C          3.2506254110        0.2990573195       -0.2565106173
 C          4.5592635927        0.4080241901        0.1280502900
 C          5.4624223997       -0.6436659293       -0.0917109657
 N          6.7957470630       -0.5322680779        0.2929300237
 C          7.4551860194        0.6955906018        0.1895589407
 C          8.3912992855        1.0801009866        1.1510472367
 C          9.0422850352        2.2926463516        1.0407916234
 C          8.7692798142        3.1428429597       -0.0190684976
 C          7.8373026723        2.7679591551       -0.9737249234
 C          7.1850065008        1.5550711334       -0.8766793034
 C          7.4752635650       -1.6505471077        0.7866028170
 C          8.8176933337       -1.8611117416        0.4685032466
 C          9.4822939876       -2.9670087662        0.9601468628
 C          8.8238736790       -3.8806128315        1.7677321825
 C          7.4898759099       -3.6778585870        2.0834957470
 C          6.8171316096       -2.5725833882        1.6018573874
 C          4.9837426088       -1.8150938481       -0.6966255239
 C          3.6715292092       -1.9269495024       -1.0706574360
 C          0.5829133275        0.1478910699       -1.6519444057
 C          1.1614041200        1.3089209058       -2.1768836821
 C          0.3840334331        2.3517474836       -2.6550769243
 C         -0.9922823605        2.2286922312       -2.6895957413
 C         -1.5890232150        1.0701893832       -2.2187897244
 C         -0.8319647571        0.0455524958       -1.6499332662
 N         -3.5162318479       -0.2501168825       -0.1150591679
 C         -3.0475656778        1.0251975143        0.2308375136
 C         -1.8423914240        1.1532955592        0.9171517933
 C         -1.3426766819        2.4060962872        1.1987820242
 C         -2.0402719151        3.5463730150        0.8207051206
 C         -3.2799959001        3.4176425663        0.1858563831
 C         -3.7713456649        2.1574127987       -0.1182340663
 O         -4.0364398760        4.5043324936       -0.1650393995
 C         -3.6050159829        5.7053065765        0.4352274298
 C         -2.0835142725        5.8178394362        0.3525497808
 O         -1.4815459926        4.7716323184        1.0807838461
 C         -4.7467821531       -0.7806995340        0.1866854436
 C         -5.8283905976       -0.0267637516        0.7872638079
 C         -5.6129730879        0.7999874477        1.8928689907
 C         -6.6594470060        1.5123337591        2.4447294181
 C         -7.9329608204        1.4175560645        1.9070324281
 C         -8.1580197104        0.5937394044        0.8145818897
 C         -7.1188667356       -0.1238979559        0.2582719884
 C         -6.6408155940       -3.1628359020        0.9378437619
 C         -7.5702944235       -4.1814689672        1.0280187339
 H         -8.2942838143       -6.0120900862        0.1848873658
 H         -6.5929349433       -6.0587644432       -1.6029248294
 H         -4.9232484341       -4.2359420404       -1.7606797888
 H         -1.1357523812       -3.2894102390       -1.0128384599
 H          1.3130630352       -3.1434105486       -1.0724183100
 H          2.5620457860        1.0955467468       -0.0173968162
 H          4.9040934529        1.2987373026        0.6338912657
 H          8.5965420882        0.4244210270        1.9846003946
 H          9.7626301920        2.5797541323        1.7925512511
 H          9.2794565467        4.0904259497       -0.1004869218
 H          7.6231500866        3.4218904906       -1.8061323549
 H          6.4693223350        1.2575618184       -1.6288512684
 H          9.3288980499       -1.1561948219       -0.1706460396
 H         10.5202049388       -3.1209922441        0.7044673556
 H          9.3468364299       -4.7445432947        2.1483871178
 H          6.9710251729       -4.3820306717        2.7169432794
 H          5.7807968368       -2.4084515555        1.8578926188
 H          5.6720520087       -2.6265281545       -0.8861954423
 H          3.3494416703       -2.8254256426       -1.5736529573
 H          2.2363090471        1.3796834629       -2.2481128063
 H          0.8615754254        3.2439474105       -3.0339325416
 H         -1.6044688981        3.0171077557       -3.1025497903
 H         -2.6564275753        0.9464539425       -2.3190949860
 H         -1.2957488279        0.2707766106        1.2106515759
 H         -0.4009968861        2.5285523890        1.7085048393
 H         -4.7140625769        2.0827768406       -0.6361213557
 H         -4.0948916806        6.5159613688       -0.1060647899
 H         -3.9114274219        5.7276605166        1.4902067188
 H         -1.7743993190        5.7663973574       -0.7005878266
 H         -1.7288623427        6.7494928327        0.7954088980
 H         -4.6272881345        0.8637246985        2.3302696798
 H         -6.4810592494        2.1434424474        3.3032692148
 H         -8.7473251767        1.9797537894        2.3390978229
 H         -9.1491068519        0.5149436129        0.3923353472
 H         -7.2911418591       -0.7603705780       -0.5972678440
 H         -6.6403906053       -2.3690780519        1.6697994032
 H         -8.3025541368       -4.1676488163        1.8226117818
