81
 energy: -130.070206531813 gnorm: 0.000070586694 xtb: 6.7.1 (edcfbbe)
N            1.79725704040001        3.09631324047021        0.82895114023413
C            2.54320253505950        2.21679583855523        0.69509614959514
C            3.45463209214623        1.20063989866166        0.49220050212718
C            4.84785191389344        1.44950794301637        0.51572015251462
C            5.37243342727298        2.74741999213068        0.97733932873874
C            6.41613304697889        3.34773259659630        0.27753524195919
C            6.92337628939626        4.56416183716975        0.69400493833962
C            6.40301975764742        5.18599706273693        1.81757223099074
C            5.37742448739434        4.58369642981974        2.52752741725678
C            4.86140905779408        3.36948255484933        2.11187117501202
N            5.72535300124390        0.56913818195348        0.12096035161491
C            5.32531312637055       -0.65710306126135       -0.32734982805136
C            6.31373256204299       -1.60086139501413       -0.76925150872316
C            5.93951324740920       -2.87714313822253       -1.21343773254440
C            6.89429809376325       -3.77705525827646       -1.63397937847204
C            8.23919825283823       -3.43017008455118       -1.62357094231551
C            8.62149918169024       -2.16970867249791       -1.18425298614754
C            7.67409413426345       -1.26257411714177       -0.76056622597225
N            4.04282014057232       -0.96889134725876       -0.32436175911740
C            3.09392827266153       -0.15387785537769        0.08231625023139
C            1.74658260722380       -0.66635327321034        0.10891117156084
C            0.74370120295236       -0.12942754913696        0.93207334364863
C           -0.52207794686503       -0.66729774600686        0.94228510527500
C           -0.83562577211321       -1.75438948785163        0.12420246466998
N           -2.12187278667318       -2.31612906103011        0.17293213739814
C           -2.35893703701136       -3.62149608777217        0.58830006142712
C           -1.46006754908530       -4.64846899456791        0.81929672076522
C           -1.96899182159446       -5.86808945013010        1.24060297559756
C           -3.33201976260671       -6.05476864504143        1.44141311617039
C           -4.23018506520177       -5.02034925010025        1.24023573283250
C           -3.74165782917446       -3.79299405078227        0.81395265842349
C           -4.35932667002772       -2.52589024104538        0.53864733926559
C           -5.67243068563583       -2.09239060701400        0.67348961405914
C           -5.98853957387455       -0.78091403614865        0.37823496955820
C           -4.98720088598711        0.05426933032212       -0.11981360332152
C           -3.64028000175143       -0.35130642922464       -0.29534105967204
C           -2.95590318947662        0.76579857924446       -0.88852539511540
C           -1.68888621071625        0.96719432017350       -1.42845827933441
C           -1.38118782575857        2.19805150494474       -1.97238474396059
C           -2.31861012678464        3.23154204296805       -2.01559923871794
C           -3.59639949952417        3.04988609843385       -1.53255206616641
C           -3.90982025055811        1.81528611533364       -0.97269809579592
N           -5.11953266767626        1.37016042189803       -0.50603872892134
C           -6.30151625761841        2.13106466835419       -0.44725485665713
C           -6.30857160982409        3.34389568981732        0.23542615279040
C           -7.46939268620958        4.09382566564065        0.29170256224133
C           -8.62425628554417        3.64027238598967       -0.32550004513008
C           -8.61618923781835        2.43315853078830       -1.00579764986637
C           -7.45913855358598        1.67803440950464       -1.07276239066660
C           -3.31473997283999       -1.64971478419584        0.11667558795910
C            0.15382157599170       -2.30827532189621       -0.69166490507030
C            1.42036707581076       -1.77665306437949       -0.69328895055407
H            6.81234602669273        2.85443441766220       -0.59778113409798
H            7.72700375633020        5.02688511532006        0.14033687267092
H            6.79856308943887        6.13684933772304        2.14234887916344
H            4.97506660623844        5.05896199652268        3.40982960656268
H            4.06989486872655        2.89795912928567        2.67646793103233
H            4.89183511017826       -3.13812027184147       -1.21258407068232
H            6.59504355303323       -4.75897528139594       -1.97231938076351
H            8.98464556054479       -4.13847025045046       -1.95363676825091
H            9.66761867390677       -1.89839712634749       -1.17274759268352
H            7.95911956448226       -0.28101163160429       -0.41190494057030
H            0.96891383103037        0.69903743883289        1.58471406795854
H           -1.28029769921940       -0.25406932999153        1.59045720974583
H           -0.39879040079245       -4.50828787344706        0.68499727434540
H           -1.28872077908145       -6.68715871901164        1.42000826031932
H           -3.69164638972869       -7.01948021576137        1.76647779229402
H           -5.28583036321509       -5.16241477593492        1.41276744580984
H           -6.43208323667855       -2.77276421877741        1.02362937230190
H           -6.99039459839784       -0.40824381551616        0.51888971889715
H           -0.95689714186253        0.17826224700511       -1.44361007042350
H           -0.39524383947850        2.36261860216431       -2.38093776431728
H           -2.04064930280674        4.17929953078534       -2.45120126673583
H           -4.33700133356092        3.83163365938460       -1.60129117063541
H           -5.40938400867288        3.68297134660157        0.72802798286820
H           -7.47265248979486        5.03261672777307        0.82507285154656
H           -9.52871336082986        4.22752887459683       -0.27760439092432
H           -9.51260347523221        2.08047846398314       -1.49354157318551
H           -7.44091768179887        0.74816258136194       -1.62116678907554
H           -0.09019825471635       -3.13823356374419       -1.33815129019314
H            2.18742715525811       -2.19094805755973       -1.32920613634527
