74
 energy: -114.434091544405 gnorm: 0.000134451936 xtb: 6.7.1 (edcfbbe)
C            8.34506318167176        3.19519325365772       -1.35674310588090
C            8.71863719036922        1.71119715908399       -1.34620837300655
C            8.64145078656689        1.12394357265211       -2.75717570683555
C            7.83005005726614        0.94692805837968       -0.39726042985690
C            8.35920975971437        0.29481846853404        0.70529254151403
C            7.55153260726316       -0.41826797843264        1.57888294665813
C            6.17884103102481       -0.48961627050113        1.35246709332775
O            5.42558220424915       -1.17954938260843        2.22997908091339
C            4.08461094930297       -1.27827236530197        1.99985288032245
C            3.40984676042609       -0.68837434783645        0.91385928502636
C            2.01700802939417       -0.94883762951927        0.67725054040036
C            1.22288508956423       -1.69158034414640        1.58813835934910
C           -0.11784734633240       -1.88180336628947        1.38068384229133
C           -0.75405272580833       -1.35021738826446        0.25325985164722
N           -2.13319162828414       -1.54672343569692        0.03853155083877
C           -2.60549337125722       -2.83394178837571       -0.17128276684963
C           -1.70433067118504       -3.90593431880315       -0.22035949574133
C           -2.14724581176919       -5.19822660097633       -0.39416469418661
C           -3.50116970872448       -5.44963289198576       -0.54172348041721
C           -4.38845852362443       -4.39031675020397       -0.54820662661454
C           -3.96930364791094       -3.07737797435211       -0.37721014293925
C           -4.98414458862161       -1.95813246032091       -0.45568073034655
C           -6.03862682101842       -2.16608190081335        0.64799076653227
C           -5.64730406853346       -2.00501854652807       -1.84531947057685
C           -4.34985205059455       -0.59547793275330       -0.25959079881610
C           -5.16298301995027        0.52346121778378       -0.30483503254810
C           -4.63642842395537        1.78589003599942       -0.07293507372820
C           -3.26830316779217        1.90981167080382        0.24298392225521
C           -2.43575018893689        0.81822649289751        0.29733484856132
C           -2.97245863490917       -0.44639489571475        0.00960963979950
O           -2.92215659211539        3.20200655747980        0.48014712649391
C           -4.05966434312523        3.93561837465337        0.31496783775496
C           -4.18122789673054        5.30464648841584        0.45387083162914
C           -5.43477738774339        5.85522881516419        0.24246971369354
C           -6.52933346667632        5.06369995384002       -0.09597818608416
C           -6.40815535019324        3.69529424188734       -0.23486968787075
C           -5.15961124736513        3.12001769058615       -0.02787279302072
C            0.01627011935096       -0.63842102881766       -0.67756974558040
C            1.35923451370454       -0.47227641295500       -0.47763011349110
C            4.16803768681962        0.12604148868893        0.00090275642271
O            3.69698811546240        0.77214148369364       -0.95647056263726
C            5.62446700713476        0.16214857551834        0.24373628344065
C            6.45359579422501        0.87752338884016       -0.60960874670055
H            7.32976363625754        3.33321878741595       -1.71889337699127
H            8.41008522666639        3.60893808998323       -0.35271639922623
H            9.02084326988167        3.74921475911080       -2.00491431385359
H            9.75242052530319        1.61998038993824       -0.99356888873736
H            7.63638695980777        1.21971655824057       -3.15921302832004
H            8.90645354476340        0.06890378193183       -2.74312313241335
H            9.32865848636663        1.64542317664687       -3.42012859130875
H            9.42223804130957        0.33876682481023        0.89478595250683
H            7.96202945301105       -0.91243054580592        2.44507434464104
H            3.60334177702260       -1.81139762076790        2.79746255916918
H            1.66056421707509       -2.08049579954968        2.49155498553489
H           -0.70857157919985       -2.42296928927451        2.10623301176000
H           -0.64643289134588       -3.71794250810011       -0.13411108624250
H           -1.43394078538208       -6.00759324863999       -0.42231249980694
H           -3.86102227594183       -6.45851154486258       -0.67171257727196
H           -5.43712736704979       -4.59754886422939       -0.69583793966293
H           -6.52321944470890       -3.13252772080440        0.54353096195989
H           -6.80310083917243       -1.39594911953126        0.60504742053415
H           -5.56345626628077       -2.12355449956464        1.62612708289408
H           -4.89499533196757       -1.86488109543614       -2.61903291992758
H           -6.39266058700149       -1.22166285062192       -1.94597665757774
H           -6.13518097819725       -2.96115070192553       -2.01076855620284
H           -6.21668090109767        0.42906271598370       -0.51245006678022
H           -1.40042306428352        0.94257859355983        0.56369454229304
H           -3.33025523785968        5.91219222437858        0.71593992337828
H           -5.56516199121468        6.92201985019233        0.34259433312562
H           -7.48934888056111        5.53255816315741       -0.25214293647954
H           -7.25728933973428        3.08326290445681       -0.49786445604898
H           -0.45736765811210       -0.26204360445585       -1.57237363311860
H            1.95429901505604        0.03407005443785       -1.22625637485839
H            5.99272636202726        1.37195337839892       -1.45034563175701
