  74
       -114.52267814
 C          8.3230533007        3.2431658409       -1.3011990031
 C          8.7704498081        1.7819707887       -1.2268398349
 C          8.8458571082        1.1656029138       -2.6256062213
 C          7.8410768321        0.9819756990       -0.3487793311
 C          8.3239764111        0.3321052168        0.7900958697
 C          7.4945968294       -0.4090842219        1.6020933944
 C          6.1409655687       -0.5182760858        1.2881929266
 O          5.3528335529       -1.2619636155        2.1072738401
 C          4.0551146655       -1.3648034530        1.8070925109
 C          3.4305711004       -0.7962155071        0.7525898511
 C          1.9869428723       -0.9811125608        0.5493726638
 C          1.1106747015       -0.9662449249        1.6339068432
 C         -0.2450628702       -1.1477140229        1.4462233369
 C         -0.7496232038       -1.3379580641        0.1652756568
 N         -2.1450624078       -1.5355426426       -0.0298725489
 C         -2.6119464656       -2.8269490086       -0.2144888121
 C         -1.7158234650       -3.8994161542       -0.1718507358
 C         -2.1498918284       -5.1942380533       -0.3614940677
 C         -3.4901519975       -5.4446042358       -0.5940338403
 C         -4.3802709827       -4.3871776136       -0.6199779884
 C         -3.9711426344       -3.0746018788       -0.4286117985
 C         -4.9988486331       -1.9603111290       -0.4474956936
 C         -6.0312978184       -2.2301933204        0.6626793658
 C         -5.6862749837       -1.9498107252       -1.8253137533
 C         -4.3725910174       -0.5971641201       -0.2098392165
 C         -5.1948605736        0.5156917143       -0.1892208484
 C         -4.6620217087        1.7803778945        0.0070574707
 C         -3.2728417800        1.9201909071        0.1699881773
 C         -2.4280663137        0.8335277989        0.1519940772
 C         -2.9848686936       -0.4372619721       -0.0260527083
 O         -2.9124916959        3.2224007338        0.3400182325
 C         -4.0689779891        3.9433589038        0.2901340308
 C         -4.1880231791        5.3140625132        0.4173421634
 C         -5.4616426520        5.8518312429        0.3372948164
 C         -6.5782834882        5.0458664329        0.1373248677
 C         -6.4585675574        3.6752334675        0.0100423591
 C         -5.1913059495        3.1136701676        0.0864115443
 C          0.1140522069       -1.3395126704       -0.9223079669
 C          1.4710452926       -1.1647650476       -0.7317020764
 C          4.2051382740        0.0217027283       -0.1945958128
 O          3.7308863732        0.5751777991       -1.1715079105
 C          5.6321532457        0.1235301766        0.1557259865
 C          6.4979669069        0.8660782201       -0.6481916450
 H          7.3439997987        3.3240286494       -1.7656003086
 H          8.2672018528        3.6747137812       -0.3041263387
 H          9.0312635162        3.8218443957       -1.8896740553
 H          9.7721058322        1.7516609189       -0.7837629003
 H          7.8751863192        1.1988402887       -3.1130781175
 H          9.1656685939        0.1274364915       -2.5666769825
 H          9.5581304208        1.7128871529       -3.2387208215
 H          9.3719191529        0.4118373432        1.0405776387
 H          7.8683644287       -0.9117139146        2.4802258928
 H          3.5367760243       -1.9950734565        2.5179621496
 H          1.4925864928       -0.7942080876        2.6293487794
 H         -0.9232005405       -1.1350637617        2.2867570289
 H         -0.6697324566       -3.7125897915        0.0157708244
 H         -1.4387706153       -6.0061446344       -0.3261292518
 H         -3.8418140975       -6.4532455603       -0.7486765225
 H         -5.4245978340       -4.5979877741       -0.7942547637
 H         -6.5070723377       -3.1969083943        0.5238888298
 H         -6.8057230572       -1.4684907432        0.6685402707
 H         -5.5388137310       -2.2265480781        1.6332613500
 H         -4.9491185501       -1.7633549586       -2.6039430975
 H         -6.4426714536       -1.1717804487       -1.8769222317
 H         -6.1646672074       -2.9040895187       -2.0274900981
 H         -6.2598096693        0.4147752877       -0.3264465835
 H         -1.3660387428        0.9699117642        0.2675097027
 H         -3.3189756018        5.9332753756        0.5722740986
 H         -5.5903797754        6.9194732030        0.4342426309
 H         -7.5551027339        5.5034106982        0.0818602551
 H         -7.3262949558        3.0520461615       -0.1448812231
 H         -0.2850517768       -1.4847075054       -1.9150518100
 H          2.1354593491       -1.1676744460       -1.5802240241
 H          6.0668695959        1.3455311961       -1.5138361749
