74
 energy: -114.522760398619 gnorm: 0.000053833962 xtb: 6.7.1 (edcfbbe)
C            8.29940213921410        3.31282345049746       -1.15732875313106
C            8.74457462460014        1.84937770633072       -1.18978878781909
C            8.79788391379549        1.33019514280617       -2.62830974527060
C            7.82723396339200        0.99334100965706       -0.35281830674905
C            8.32534198936156        0.27959775351361        0.74036891712357
C            7.50798120330563       -0.51179006569643        1.51624158446665
C            6.15145486559064       -0.60841685168894        1.21104965289059
O            5.37574497018023       -1.40193900475335        1.99443782993284
C            4.07435972969913       -1.48960955503030        1.70620381204508
C            3.43545117395084       -0.86361667876288        0.69369989558301
C            1.98878810303236       -1.03834600615879        0.50241819471026
C            1.13016063562918       -1.08104969008490        1.60029906193278
C           -0.22869833948196       -1.25144304762813        1.42524840096244
C           -0.75364969794071       -1.37439883220759        0.14442404463258
N           -2.15359537499001       -1.55784488898336       -0.03651304605625
C           -2.63813541310469       -2.84471846160982       -0.20236773771097
C           -1.75152549023423       -3.92551896176955       -0.17823181134559
C           -2.20391535537762       -5.21717043092394       -0.34548491624034
C           -3.55288774759088       -5.45530666599853       -0.53692086474318
C           -4.43233015692634       -4.38862283514377       -0.55080961042123
C           -4.00450593296133       -3.07871586247872       -0.38400463720150
C           -5.01893541970995       -1.95205460901173       -0.39777564330940
C           -6.03151120945790       -2.19231253651027        0.73712759079252
C           -5.73475145556510       -1.95390929833262       -1.76110391687692
C           -4.37135085917370       -0.59329972200707       -0.19379250203417
C           -5.17811742467898        0.53094252421816       -0.17761249746534
C           -4.62548198985402        1.79076945989229       -0.00546488940624
C           -3.23294511238905        1.91331247048552        0.14275083163761
C           -2.40326274987627        0.81505864011558        0.12900056525368
C           -2.97920654126011       -0.44934877509895       -0.03198779213341
O           -2.85314208439806        3.21211596118173        0.29466667115983
C           -3.99993555432870        3.94844609811065        0.24691838505990
C           -4.09849285987942        5.32202753037428        0.35987553729452
C           -5.36510333977486        5.87680740113317        0.28547399238192
C           -6.49456866441426        5.08444192528050        0.10407480094746
C           -6.39527644443015        3.71092563145742       -0.00890962932361
C           -5.13547052837660        3.13221353370241        0.06296696591876
C            0.09209175133049       -1.31980176161398       -0.95555448247362
C            1.45222976624388       -1.15433271540104       -0.77801200209200
C            4.19709537094393        0.00592620199902       -0.21744490644766
O            3.71067342659244        0.60672959851053       -1.15968050808307
C            5.62737806044757        0.09596744689223        0.12358231000485
C            6.48131045699874        0.88911089131791       -0.64416099904888
H            7.31442977924629        3.42658154531824       -1.60184100216280
H            8.25778763480105        3.67464017906409       -0.13228743530189
H            9.00108616257402        3.92979283686083       -1.71388422398388
H            9.75277043081799        1.78784789794495       -0.76517471139701
H            7.82054147752405        1.39829771760875       -3.09847591718944
H            9.11594096217674        0.28997557381393       -2.64530460717536
H            9.50268811182255        1.91720014797853       -3.21259578477715
H            9.37573026485032        0.34898615116071        0.98352423789800
H            7.89326293147713       -1.06319618316580        2.35942637430728
H            3.56607747097471       -2.16004177925576        2.38694769516123
H            1.52833980472471       -0.96176525286032        2.59708022538907
H           -0.89326588858942       -1.28303677681603        2.27599986232717
H           -0.69826896423532       -3.74668501051479       -0.02561274678854
H           -1.50035548274003       -6.03617905223958       -0.32517332990108
H           -3.91930859947921       -6.46163414584113       -0.67110053487850
H           -5.48295933903589       -4.58997548469425       -0.69608362506875
H           -6.52718112980442       -3.15174928444350        0.61861430820422
H           -6.79193536210942       -1.41671495333446        0.75135980487007
H           -5.51833383892755       -2.18744807733457        1.69691333607039
H           -5.01283576916437       -1.78084980577484       -2.55693353978228
H           -6.48801036144012       -1.17243881347060       -1.80629094976232
H           -6.22229934576742       -2.90782850417502       -1.94204686068099
H           -6.24607527984378        0.44283424852394       -0.29957187314936
H           -1.33852733478329        0.93710718668795        0.23574387657145
H           -3.21924207911868        5.93032679387895        0.49983729747901
H           -5.47779996247785        6.94726889043107        0.37005183175835
H           -7.46516880811511        5.55517047246888        0.05103136346205
H           -7.27309679454033        3.09860420836685       -0.14962861970958
H           -0.32330906285878       -1.41205275962613       -1.94791241272421
H            2.10288644516243       -1.11177652846472       -1.63602633796859
H            6.03913487795717        1.41680243253950       -1.47549160855520
