  58
  -91.8697994563000       0.316502796816032      !
 N          5.8902123621       -3.1224584481       -2.3647321586
 C          6.0397067129       -2.2215620549       -1.6690945375
 C          6.3067573519       -1.1194818575       -0.8307498400
 C          7.6940353095       -0.9217540738       -0.6741112838
 N          8.8345016782       -0.8259621227       -0.5786917943
 C          5.3424296786       -0.3420944934       -0.2493778664
 C          5.5587063657        0.8082460089        0.6260240978
 C          6.7229824723        1.3973343492        1.0884064022
 C          6.6219834067        2.5003302539        1.9279915918
 C          5.3873250235        3.0061625707        2.2987330817
 C          4.2113030793        2.4232230530        1.8390643759
 C          4.3013060336        1.3281992099        1.0061696565
 C          3.2666712881        0.5170603590        0.3760306739
 C          1.8965530961        0.6103892775        0.4287394225
 C          1.1176658853       -0.3222106699       -0.2708474820
 C         -0.3428342713       -0.2472199318       -0.2188394054
 C         -0.9989248001        0.9851239848       -0.2226446549
 C         -2.3728085196        1.0614143824       -0.1716804203
 C         -3.1468861722       -0.1001378954       -0.1005929278
 N         -4.5338875541       -0.0283429725       -0.0341701229
 C         -5.2568468387       -0.9756835126        0.7061719315
 C         -4.7692620161       -1.4407958740        1.9267494221
 C         -5.4878488159       -2.3707581171        2.6529494350
 C         -6.7020357470       -2.8425084804        2.1814356200
 C         -7.1932994019       -2.3783229740        0.9721704030
 C         -6.4780198800       -1.4545949584        0.2345671358
 C         -5.2244267372        0.9964491316       -0.6978043385
 C         -4.8160814589        1.4208977960       -1.9615083440
 C         -5.5024253496        2.4287505517       -2.6110311870
 C         -6.6062467928        3.0202558475       -2.0187447113
 C         -7.0191510313        2.5972303648       -0.7658837931
 C         -6.3344882973        1.5957392019       -0.1047816214
 C         -2.4947226246       -1.3364661182       -0.0946443273
 C         -1.1211028269       -1.4047168227       -0.1588808940
 C          1.7543224454       -1.3212174132       -1.0103258698
 C          3.1340161527       -1.4159328936       -1.0761530460
 C          3.9027055405       -0.4953771842       -0.3798036330
 H          7.6932404801        1.0180065195        0.8107080216
 H          7.5235541499        2.9667747846        2.2951758333
 H          5.3364507143        3.8640146733        2.9526631711
 H          3.2506994348        2.8204891294        2.1305020839
 H          1.4198321244        1.3749990515        1.0235647652
 H         -0.4233225579        1.8967488282       -0.2885970174
 H         -2.8607676626        2.0249961000       -0.1770341570
 H         -3.8283039913       -1.0644153153        2.3014576202
 H         -5.1004623354       -2.7219030623        3.5978812551
 H         -7.2621299129       -3.5663081393        2.7533721469
 H         -8.1371364116       -2.7435198309        0.5954763535
 H         -6.8579841564       -1.0989959466       -0.7121404852
 H         -3.9628156267        0.9517613316       -2.4297451667
 H         -5.1778531917        2.7472480419       -3.5905416369
 H         -7.1418843385        3.8047533354       -2.5309278926
 H         -7.8764348420        3.0551408263       -0.2953420003
 H         -6.6523865056        1.2719084729        0.8756121629
 H         -3.0784673614       -2.2437710490       -0.0452251958
 H         -0.6397865228       -2.3712755758       -0.1401106684
 H          1.1551185661       -2.0261764520       -1.5665642408
 H          3.5906127736       -2.1952360655       -1.6651247669
  58
  -91.8696864538000       0.280831098502168      !
 N          5.9067092058       -3.8838280253       -0.0001143884
 C          6.0523045294       -2.7446697057       -0.0000861116
 C          6.3141501327       -1.3590112755        0.0001634823
 C          7.7002655946       -1.1008847705        0.0013953191
 N          8.8404872139       -0.9619336267        0.0026399348
 C          5.3459211389       -0.3922735801       -0.0026689631
 C          5.5568610916        1.0540218708       -0.0088714807
 C          6.7183247383        1.8071535443       -0.0074486946
 C          6.6121194358        3.1928702860       -0.0155751165
 C          5.3750580648        3.8153064633       -0.0248291020
 C          4.2017772949        3.0686392505       -0.0252694375
 C          4.2969594823        1.6932151519       -0.0171463471
 C          3.2662502094        0.6621445385       -0.0104448824
 C          1.8959063946        0.7632029494       -0.0099795678
 C          1.1205290107       -0.4054269713       -0.0058385781
 C         -0.3391035957       -0.3206915548       -0.0044469345
 C         -1.1169113190       -1.2395369370       -0.7127379697
 C         -2.4908625888       -1.1561204275       -0.7185258127
 C         -3.1463933881       -0.1528475321        0.0014518032
 N         -4.5329240189       -0.0669705001        0.0037312304
 C         -5.3192161171       -1.2257908795       -0.0794825535
 C         -4.9445821418       -2.3861362557        0.5962515015
 C         -5.7272435840       -3.5215532622        0.5126963941
 C         -6.8940133277       -3.5158125567       -0.2339441031
 C         -7.2732590187       -2.3629676139       -0.9018204322
 C         -6.4931320817       -1.2250024351       -0.8310987739
 C         -5.1644203564        1.1830050079        0.0929699447
 C         -6.3143732439        1.3363795211        0.8655292707
 C         -6.9390447854        2.5662127602        0.9440979020
 C         -6.4264712930        3.6580143065        0.2627071462
 C         -5.2833525331        3.5101337515       -0.5057664504
 C         -4.6558251558        2.2826933827       -0.5966067368
 C         -2.3730426734        0.7645032319        0.7190981054
 C         -0.9991715578        0.6837551647        0.7072667485
 C          1.7628832471       -1.6459403458       -0.0009009442
 C          3.1427151508       -1.7558986953        0.0021296830
 C          3.9073934087       -0.5987850868       -0.0029837703
 H          7.6904825386        1.3408087601        0.0000076731
 H          7.5115388499        3.7897017068       -0.0146138881
 H          5.3201616766        4.8937314335       -0.0313654908
 H          3.2392091713        3.5577117690       -0.0320633500
 H          1.4167437130        1.7302465462       -0.0378897349
 H         -0.6338258746       -2.0065518335       -1.2996858434
 H         -3.0721755895       -1.8623625718       -1.2928038009
 H         -4.0415911271       -2.3878987560        1.1894514231
 H         -5.4278151479       -4.4137753516        1.0422758060
 H         -7.5044082372       -4.4037557415       -0.2937361402
 H         -8.1797061695       -2.3506765486       -1.4883677902
 H         -6.7856076099       -0.3284173733       -1.3578959013
 H         -6.7097784871        0.4869534666        1.4032483695
 H         -7.8275295448        2.6736651384        1.5482264292
 H         -6.9154206658        4.6178148849        0.3289085166
 H         -4.8819363753        4.3540589903       -1.0469063700
 H         -3.7718082947        2.1646516561       -1.2064525183
 H         -2.8637749885        1.5342530881        1.2964031604
 H         -0.4267271796        1.3868633983        1.2941886202
 H          1.1677686889       -2.5461427079        0.0259837508
 H          3.6030074963       -2.7308996651        0.0138273418
  58
  -91.8696443884000       0.268604497019920      !
 N          5.9061737568       -2.9806654695       -2.5357603779
 C          6.0474069832       -2.1325058293       -1.7745435130
 C          6.3046719735       -1.0918206694       -0.8579942970
 C          7.6895636153       -0.9262138095       -0.6494069068
 N          8.8280125097       -0.8518945321       -0.5177014122
 C          5.3348628135       -0.3408404695       -0.2529071185
 C          5.5415883152        0.7504750806        0.6970769608
 C          6.6996678698        1.2877544405        1.2324532277
 C          6.5893455981        2.3374613740        2.1365986012
 C          5.3517459044        2.8424189417        2.4988159003
 C          4.1819588930        2.3113605572        1.9662247894
 C          4.2811780511        1.2684651329        1.0699794997
 C          3.2539429950        0.5106853956        0.3657589117
 C          1.8835853968        0.6154418355        0.3929335284
 C          1.1136534928       -0.2790671474       -0.3628486566
 C         -0.3480256920       -0.2078923474       -0.3147446866
 C         -1.0088894574        1.0211447601       -0.3195458163
 C         -2.3831462776        1.0896777642       -0.2534231494
 C         -3.1466809296       -0.0763488305       -0.1560712481
 N         -4.5339152014       -0.0147628811       -0.0529760201
 C         -5.2139790486       -0.9285983992        0.7649481269
 C         -4.6645021287       -1.3263814471        1.9832098068
 C         -5.3368608226       -2.2242786296        2.7890543959
 C         -6.5659739638       -2.7310603125        2.4003006250
 C         -7.1180163665       -2.3351414361        1.1931386568
 C         -6.4493124517       -1.4440604536        0.3760306216
 C         -5.2530148178        0.9660614342       -0.7490381465
 C         -4.8676284974        1.3423729201       -2.0352631393
 C         -5.5826609983        2.3048866462       -2.7213461773
 C         -6.6926431504        2.8991587486       -2.1434333647
 C         -7.0808902175        2.5263408425       -0.8669134989
 C         -6.3674568370        1.5708369679       -0.1693178990
 C         -2.4893558432       -1.3093863593       -0.1550943532
 C         -1.1165237474       -1.3706389698       -0.2428759487
 C          1.7555564410       -1.2452713384       -1.1391773480
 C          3.1360653842       -1.3446070900       -1.1868462615
 C          3.8968594698       -0.4677399433       -0.4282298946
 H          7.6720530679        0.9072534946        0.9638035180
 H          7.4858468250        2.7618258950        2.5623632072
 H          5.2935703416        3.6577081583        3.2046009061
 H          3.2189430648        2.7069650896        2.2518165009
 H          1.3982910142        1.3542253583        1.0129079671
 H         -0.4364590806        1.9341849118       -0.3955528523
 H         -2.8789431960        2.0492473595       -0.2621016068
 H         -3.7114491435       -0.9227009802        2.2933058288
 H         -4.9014743792       -2.5222232556        3.7313826105
 H         -7.0903764801       -3.4292123013        3.0345566750
 H         -8.0735829672       -2.7289598500        0.8804032518
 H         -6.8767752096       -1.1430069088       -0.5692033973
 H         -4.0097891769        0.8705533214       -2.4923309983
 H         -5.2760536029        2.5849487170       -3.7183243288
 H         -7.2517668503        3.6468921746       -2.6846070384
 H         -7.9419355008        2.9878636173       -0.4066832656
 H         -6.6663875228        1.2875866421        0.8293988431
 H         -3.0688314254       -2.2183775585       -0.0875186673
 H         -0.6268831799       -2.3332025859       -0.2294957947
 H          1.1600625346       -1.9198245383       -1.7357162545
 H          3.5988087316       -2.0962223929       -1.8058657763
  58
  -91.8689876657000       0.134061607661880      !
 N          5.8851244826       -3.3877481776        1.9412498750
 C          6.0411606908       -2.3963413870        1.3826228260
 C          6.3158487029       -1.1822743405        0.7202292695
 C          7.7033757782       -0.9452820964        0.6417150588
 N          8.8436848116       -0.8098217724        0.6184029997
 C          5.3569691404       -0.3489208615        0.2115527942
 C          5.5808886944        0.9090477791       -0.4982362788
 C          6.7476176438        1.5849691594       -0.8112942152
 C          6.6543979079        2.7880655555       -1.5007512322
 C          5.4249466500        3.3056392140       -1.8724146460
 C          4.2465174883        2.6349702835       -1.5632510675
 C          4.3285087484        1.4417845544       -0.8773727124
 C          3.2889314887        0.5378279683       -0.3996517483
 C          1.9205830472        0.6147164090       -0.4952745704
 C          1.1297293976       -0.3872619788        0.0881742200
 C         -0.3291783727       -0.3073366115        0.0333024110
 C         -0.9813745193        0.9285699105        0.0340409750
 C         -2.3543380916        1.0148705551        0.0133287750
 C         -3.1438611438       -0.1398638406       -0.0024353620
 N         -4.5269485048       -0.0497929946        0.0045727978
 C         -5.3298946800       -1.0632007883       -0.5435246531
 C         -6.4970058929       -1.4525559170        0.1116692393
 C         -7.3007585596       -2.4384876817       -0.4270350259
 C         -6.9519757310       -3.0521487606       -1.6189340756
 C         -5.7941121696       -2.6665988195       -2.2745319390
 C         -4.9875495901       -1.6759878158       -1.7474312585
 C         -5.1675060077        1.0578179344        0.5878954912
 C         -6.2637080408        1.6392472604       -0.0459040164
 C         -6.9004287396        2.7243573304        0.5253585215
 C         -6.4531230530        3.2449128520        1.7286075362
 C         -5.3667366116        2.6662318897        2.3643801046
 C         -4.7277901753        1.5767540788        1.8041497948
 C         -2.4972727282       -1.3801201934       -0.0171287873
 C         -1.1229708357       -1.4568852463       -0.0012965330
 C          1.7628098036       -1.4484184379        0.7419906049
 C          3.1407369619       -1.5391870920        0.8327977163
 C          3.9180646700       -0.5412270334        0.2641385645
 H          7.7137198616        1.1984736128       -0.5288999420
 H          7.5578041626        3.3248775215       -1.7474399593
 H          5.3799408632        4.2428528630       -2.4068065689
 H          3.2900527345        3.0432195222       -1.8533511441
 H          1.4576877972        1.4295130664       -1.0308226862
 H         -0.4048161788        1.8404959791        0.0770490735
 H         -2.8299961741        1.9843662970        0.0088959711
 H         -6.7647636816       -0.9781023648        1.0446114916
 H         -8.2007388718       -2.7335796602        0.0915375302
 H         -7.5798154580       -3.8247869285       -2.0354193181
 H         -5.5200752558       -3.1346811532       -3.2083242836
 H         -4.0912835957       -1.3675075273       -2.2659233227
 H         -6.6075447775        1.2353131292       -0.9870766425
 H         -7.7460170691        3.1703079057        0.0233624230
 H         -6.9497807096        4.0953204775        2.1699527550
 H         -5.0184528902        3.0598975492        3.3076776884
 H         -3.8869380698        1.1185066983        2.3045961536
 H         -3.0841708627       -2.2864999203       -0.0272949556
 H         -0.6559454301       -2.4299722450       -0.0292372010
 H          1.1623601422       -2.2095280730        1.2161170289
 H          3.5899235760       -2.3715010252        1.3505863010
