  58
  -92.2025465100000       0.125986803636250      !
 N          5.8567558549       -3.9566541995        0.1289658373
 C          6.0168496160       -2.8199884999        0.0937415377
 C          6.2963238132       -1.4384316860        0.0512278867
 C          7.6856128749       -1.1980174770        0.0463499065
 N          8.8275101219       -1.0735877962        0.0448524449
 C          5.3404907516       -0.4600318045        0.0169640702
 C          5.5698422374        0.9825733594       -0.0339564854
 C          6.7408028983        1.7205719332       -0.0543618847
 C          6.6522652856        3.1066007148       -0.1057603361
 C          5.4232425248        3.7441082272       -0.1360999405
 C          4.2405470731        3.0127511358       -0.1149301729
 C          4.3181935790        1.6371490732       -0.0638707012
 C          3.2744282316        0.6199610744       -0.0265129800
 C          1.9054830642        0.7383811533       -0.0310959050
 C          1.1152791059       -0.4196109721        0.0083384528
 C         -0.3431564032       -0.3163417791        0.0050654609
 C         -1.1319017740       -1.2468440312       -0.6753639480
 C         -2.5046726149       -1.1462047732       -0.6856529244
 C         -3.1480849546       -0.1127544392        0.0018395244
 N         -4.5334107942       -0.0092450790       -0.0004801446
 C         -5.3343169320       -1.1600147061       -0.0486786199
 C         -4.9751643684       -2.3034203608        0.6633617338
 C         -5.7721417007       -3.4308565929        0.6140987443
 C         -6.9380021105       -3.4335497870       -0.1339780392
 C         -7.3018693504       -2.2973370713       -0.8379374442
 C         -6.5073811222       -1.1677215359       -0.8015845016
 C         -5.1490222356        1.2508226463        0.0489346722
 C         -6.2976943104        1.4427721628        0.8147487126
 C         -6.9067274915        2.6822900792        0.8541350022
 C         -6.3796124850        3.7457463664        0.1398059053
 C         -5.2377080538        3.5595017234       -0.6221048699
 C         -4.6257766116        2.3219569286       -0.6738273672
 C         -2.3638245511        0.8166019586        0.6916599884
 C         -0.9910823822        0.7180820117        0.6842551548
 C          1.7417746246       -1.6674272845        0.0527748493
 C          3.1200902716       -1.7947539142        0.0611421915
 C          3.8994502499       -0.6481659818        0.0210794158
 H          7.7069337522        1.2423760127       -0.0310449697
 H          7.5592126420        3.6917012188       -0.1221262869
 H          5.3820938453        4.8224169013       -0.1762738591
 H          3.2842939566        3.5135607676       -0.1382790083
 H          1.4387051806        1.7100943845       -0.0897557262
 H         -0.6580433319       -2.0378374404       -1.2374838711
 H         -3.0943642041       -1.8625466640       -1.2384784882
 H         -4.0728582075       -2.2981789833        1.2575823545
 H         -5.4846281962       -4.3098865283        1.1716060144
 H         -7.5595982862       -4.3151001296       -0.1669525819
 H         -8.2075038568       -2.2918047912       -1.4258412163
 H         -6.7878894729       -0.2843327659       -1.3564369751
 H         -6.7044207234        0.6155923968        1.3780949804
 H         -7.7943705726        2.8197778787        1.4533923128
 H         -6.8563619186        4.7132754903        0.1754237780
 H         -4.8250378901        4.3810009221       -1.1886907466
 H         -3.7427302750        2.1737644876       -1.2784757816
 H         -2.8452848327        1.6101256359        1.2440460342
 H         -0.4103111586        1.4317981170        1.2498036891
 H          1.1352153790       -2.5587249359        0.1068377305
 H          3.5679140896       -2.7746851882        0.1038188352
  58
  -92.2025438700000       0.125635333737074      !
 N          5.8481246122       -3.9626256419       -0.1701199877
 C          6.0105070508       -2.8258400676       -0.1403964226
 C          6.2932519271       -1.4446633133       -0.1037872301
 C          7.6827977209       -1.2071823664       -0.1277346801
 N          8.8245316051       -1.0848512388       -0.1474289492
 C          5.3400300361       -0.4640892355       -0.0591941121
 C          5.5728681475        0.9784982076       -0.0254182863
 C          6.7455411526        1.7141223748       -0.0220913880
 C          6.6603919858        3.1007706778        0.0180110609
 C          5.4330735526        3.7411973966        0.0533007409
 C          4.2486850820        3.0122351120        0.0488045000
 C          4.3229723456        1.6360474365        0.0097609587
 C          3.2767576691        0.6208149958       -0.0058253372
 C          1.9080826299        0.7422639980        0.0095526644
 C          1.1158602124       -0.4147741448       -0.0012321557
 C         -0.3423962980       -0.3087154189        0.0135561140
 C         -0.9953846162        0.7021873521       -0.6951753026
 C         -2.3682842387        0.8006179914       -0.6952681616
 C         -3.1467791235       -0.1029931617        0.0341734193
 N         -4.5321638355       -0.0022171950        0.0433876986
 C         -5.3279027361       -1.1532953761        0.1500904083
 C         -6.4870961770       -1.1356236593        0.9239224877
 C         -7.2755088997       -2.2661394888        1.0193966263
 C         -6.9189998833       -3.4277878867        0.3541706808
 C         -5.7672397111       -3.4499360511       -0.4153177513
 C         -4.9765247005       -2.3221442149       -0.5234136452
 C         -5.1555148699        1.2507213003       -0.0573228927
 C         -6.3166524801        1.3983575466       -0.8144331938
 C         -6.9351901084        2.6304382106       -0.9044257019
 C         -6.4051566280        3.7306980771       -0.2504599932
 C         -5.2510591640        3.5886947506        0.5025523797
 C         -4.6297670197        2.3589784974        0.6052774214
 C         -2.4974099657       -1.1109707645        0.7534829400
 C         -1.1249521139       -1.2140509455        0.7334835996
 C          1.7389638785       -1.6645955904       -0.0285073943
 C          3.1169180902       -1.7948737654       -0.0520001189
 C          3.8986459991       -0.6492683042       -0.0417165019
 H          7.7103678876        1.2334994205       -0.0470487315
 H          7.5686539347        3.6840588837        0.0227245463
 H          5.3945599251        4.8199750974        0.0831529277
 H          3.2937240594        3.5152996919        0.0737812401
 H          1.4429001787        1.7155532174        0.0546365802
 H         -0.4185108841        1.3954570242       -1.2895167430
 H         -2.8540245175        1.5734454323       -1.2726541211
 H         -6.7612080965       -0.2320882281        1.4488898611
 H         -8.1701879783       -2.2411137066        1.6235340932
 H         -7.5357450721       -4.3098388751        0.4333392365
 H         -5.4860996741       -4.3489816761       -0.9433722258
 H         -4.0847917188       -2.3366439745       -1.1333427844
 H         -6.7255557998        0.5425281962       -1.3316194303
 H         -7.8323017635        2.7330414020       -1.4966671806
 H         -6.8890059962        4.6923777866       -0.3260511273
 H         -4.8356726173        4.4394415133        1.0221983718
 H         -3.7370230343        2.2462672886        1.2034167332
 H         -3.0822349981       -1.8061060361        1.3376195682
 H         -0.6458649019       -1.9851950704        1.3183835670
 H          1.1294969412       -2.5551347837       -0.0574928374
 H          3.5625133364       -2.7762954035       -0.0815597637
  58
  -92.2025371200000       0.124741141096660      !
 N          5.8246010151       -3.7104754538        1.4960463650
 C          5.9938296233       -2.6520272676        1.0835103099
 C          6.2837401788       -1.3664221160        0.5814622306
 C          7.6746136173       -1.1425351215        0.5244368007
 N          8.8169943082       -1.0248683308        0.5059857127
 C          5.3357385203       -0.4559783115        0.2022412113
 C          5.5761728347        0.8852067401       -0.3265893304
 C          6.7527021499        1.5697112890       -0.5785000205
 C          6.6749749028        2.8576468372       -1.0946471580
 C          5.4511958976        3.4512487825       -1.3543016881
 C          4.2629849508        2.7734254264       -1.1037945470
 C          4.3298817050        1.4953653254       -0.5913068707
 C          3.2783742829        0.5532016741       -0.2278381693
 C          1.9104347236        0.6696977384       -0.2846289219
 C          1.1111106955       -0.4043712789        0.1329708966
 C         -0.3464438337       -0.2982489524        0.0880575574
 C         -1.1420144795       -1.3973634277       -0.2434681570
 C         -2.5139819837       -1.2960180651       -0.2902586535
 C         -3.1494273525       -0.0871491770        0.0088282817
 N         -4.5345091070        0.0171788681       -0.0303626508
 C         -5.1445987081        1.2198024531       -0.4159085611
 C         -4.6082154484        1.9845005830       -1.4509577255
 C         -5.2144938688        3.1675582941       -1.8267100252
 C         -6.3643636264        3.6004212375       -1.1868743961
 C         -6.9049187550        2.8400205594       -0.1628830538
 C         -6.3012244824        1.6597661400        0.2258055435
 C         -5.3377320717       -1.0772082423        0.3243582211
 C         -4.9802244148       -1.8997582571        1.3916248862
 C         -5.7777980655       -2.9731726947        1.7383756638
 C         -6.9424078899       -3.2370806061        1.0361588164
 C         -7.3044689225       -2.4185735628       -0.0212194510
 C         -6.5094401748       -1.3473239486       -0.3805979875
 C         -2.3585263256        1.0141906208        0.3488807183
 C         -0.9865948484        0.9086670189        0.3793689138
 C          1.7278823426       -1.5695114413        0.5952085770
 C          3.1051702529       -1.6928472044        0.6594392181
 C          3.8934689272       -0.6281789351        0.2485990922
 H          7.7148186463        1.1243138459       -0.3825645360
 H          7.5862596577        3.4003505258       -1.2950651521
 H          5.4184606638        4.4527202138       -1.7567217567
 H          3.3108900624        3.2395876090       -1.3081151237
 H          1.4515772265        1.5682283637       -0.6687220036
 H         -0.6742417679       -2.3344149140       -0.5067356718
 H         -3.1095366675       -2.1521300100       -0.5711732275
 H         -3.7185973750        1.6413573513       -1.9591087637
 H         -4.7903809911        3.7503521280       -2.6308894420
 H         -6.8368577371        4.5235496897       -1.4853665304
 H         -7.7994090601        3.1713693983        0.3431401092
 H         -6.7191477441        1.0711931188        1.0295187174
 H         -4.0784648807       -1.6872527984        1.9475471167
 H         -5.4915676357       -3.6019855689        2.5683526340
 H         -7.5645288257       -4.0745178514        1.3123047112
 H         -8.2082911043       -2.6200211877       -0.5767180282
 H         -6.7875551854       -0.7145035129       -1.2107630993
 H         -2.8341157030        1.9504941659        0.6013997381
 H         -0.4004823455        1.7664536547        0.6746333510
 H          1.1143919323       -2.3896582166        0.9360592944
 H          3.5452063314       -2.6053056367        1.0285068125
  58
  -92.2025263300000       0.123324956761346      !
 N          5.8244573354       -3.9621409000        0.2444063150
 C          5.9950024762       -2.8286216115        0.1720350102
 C          6.2859423854       -1.4512805548        0.0861163158
 C          7.6773576055       -1.2244395603        0.0709005628
 N          8.8205648625       -1.1145973052        0.0624139114
 C          5.3385014579       -0.4659711928        0.0269962385
 C          5.5803706088        0.9729987270       -0.0564828627
 C          6.7581176718        1.6989802123       -0.1002460697
 C          6.6823905922        3.0842732162       -0.1817408242
 C          5.4592025868        3.7324068074       -0.2177645493
 C          4.2697478173        3.0130955998       -0.1733000459
 C          4.3345881069        1.6382171967       -0.0934216624
 C          3.2817066476        0.6313380104       -0.0337035065
 C          1.9134799721        0.7608972653       -0.0412878382
 C          1.1151906128       -0.3906607516        0.0096790027
 C         -0.3429489198       -0.2809269434       -0.0046349697
 C         -0.9948940693        0.7453056544        0.6821313492
 C         -2.3684364634        0.8386651064        0.6881716586
 C         -3.1475321767       -0.0859268409       -0.0136130972
 N         -4.5338672823        0.0018805833       -0.0103647526
 C         -5.3187250165       -1.1594895595       -0.0783653727
 C         -4.9434440033       -2.3100094423        0.6136236326
 C         -5.7227183616       -3.4485081507        0.5420458389
 C         -6.8870741318       -3.4552342739       -0.2084970498
 C         -7.2677570861       -2.3116568956       -0.8913518922
 C         -6.4908055764       -1.1707274077       -0.8326383517
 C         -5.1689358955        1.2499045974        0.0768610902
 C         -4.6677057409        2.3494890631       -0.6181468008
 C         -5.3008782925        3.5742647572       -0.5293272467
 C         -6.4420530725        3.7195254944        0.2424870871
 C         -6.9472582057        2.6277624542        0.9294420035
 C         -6.3170544729        1.4007373535        0.8528475176
 C         -2.4984505914       -1.1047921606       -0.7177764280
 C         -1.1258043193       -1.2029261563       -0.7028034957
 C          1.7307212235       -1.6428570493        0.0740098074
 C          3.1078543910       -1.7810352594        0.0913406040
 C          3.8959017968       -0.6411632674        0.0356612723
 H          7.7195479001        1.2118606408       -0.0726488519
 H          7.5945710355        3.6602470087       -0.2172257685
 H          5.4278881791        4.8098614367       -0.2816440913
 H          3.3183409434        3.5224304531       -0.2023998415
 H          1.4530213192        1.7348158138       -0.1133189716
 H         -0.4166897685        1.4546331136        1.2559286765
 H         -2.8536678682        1.6229845729        1.2502737225
 H         -4.0421468452       -2.3018104814        1.2093977073
 H         -5.4224580047       -4.3331763855        1.0836702364
 H         -7.4945390597       -4.3457275839       -0.2595462196
 H         -8.1725787834       -2.3091133378       -1.4806971772
 H         -6.7843704591       -0.2812817013       -1.3709719341
 H         -3.7848742790        2.2336417614       -1.2302055805
 H         -4.9049291304        4.4184635809       -1.0741205686
 H         -6.9352736050        4.6772425401        0.3071080601
 H         -7.8343934171        2.7329542614        1.5360117228
 H         -6.7069570753        0.5511383030        1.3943268472
 H         -3.0842140909       -1.8138874619       -1.2838541008
 H         -0.6465448469       -1.9850961156       -1.2727083851
 H          1.1157340786       -2.5278789975        0.1363615435
 H          3.5478796720       -2.7636049753        0.1504198501
  58
  -92.2022591600000       9.295401241694315E-002 !
 N          5.8523051974       -3.2691370088       -2.2582235733
 C          6.0125724065       -2.3489875787       -1.5907552069
 C          6.2928073194       -1.2248174664       -0.7867473778
 C          7.6823352084       -1.0399434081       -0.6344126359
 N          8.8238339720       -0.9557191281       -0.5404373284
 C          5.3378835839       -0.4175189650       -0.2311916776
 C          5.5679266422        0.7566829375        0.6082828957
 C          6.7391525225        1.3450489513        1.0537227812
 C          6.6513782045        2.4748473730        1.8584309662
 C          5.4228958479        3.0076190461        2.2115348489
 C          4.2400007180        2.4256320555        1.7685995622
 C          4.3168747289        1.3041491775        0.9703152124
 C          3.2726176815        0.4869879786        0.3642911011
 C          1.9037478148        0.5993068672        0.4121671330
 C          1.1137392039       -0.3446574241       -0.2591357774
 C         -0.3457381427       -0.2495402463       -0.2115148216
 C         -0.9860740171        0.9903209507       -0.2545841931
 C         -2.3589244057        1.0856044586       -0.2079267565
 C         -3.1478050240       -0.0632459038       -0.1017968704
 N         -4.5338446079        0.0281926365       -0.0395666658
 C         -5.2695466262       -0.8863766361        0.7288968464
 C         -4.7891374190       -1.3194113259        1.9640348264
 C         -5.5202319136       -2.2171080304        2.7178283577
 C         -6.7398608570       -2.6878528775        2.2595401120
 C         -7.2239716287       -2.2553455445        1.0357326534
 C         -6.4962522355       -1.3641926197        0.2707308427
 C         -5.2106152507        1.0405106860       -0.7357327781
 C         -4.7956426499        1.4201828244       -2.0114667458
 C         -5.4684481167        2.4159572342       -2.6929952966
 C         -6.5652327932        3.0395903409       -2.1209387572
 C         -6.9847350931        2.6610608410       -0.8560932380
 C         -6.3135411047        1.6720263435       -0.1631913093
 C         -2.5114486885       -1.3069725367       -0.0564666349
 C         -1.1387466207       -1.3946308309       -0.1166405517
 C          1.7383525391       -1.3742115326       -0.9662785168
 C          3.1167924968       -1.4884463062       -1.0272101580
 C          3.8964539130       -0.5564907322       -0.3587824669
 H          7.7047751336        0.9449655305        0.7893124484
 H          7.5584524297        2.9410111430        2.2121713539
 H          5.3823038537        3.8859946361        2.8383774129
 H          3.2842465406        2.8439487849        2.0461976550
 H          1.4362148723        1.3880609756        0.9822443943
 H         -0.3988412266        1.8920659243       -0.3480783791
 H         -2.8345645148        2.0546718693       -0.2439455643
 H         -3.8438338091       -0.9435265453        2.3281533234
 H         -5.1382876235       -2.5435504403        3.6737682694
 H         -7.3096965069       -3.3863201508        2.8529485817
 H         -8.1720095622       -2.6200782210        0.6692771943
 H         -6.8707164301       -1.0334482261       -0.6871123288
 H         -3.9479575349        0.9258943204       -2.4636903029
 H         -5.1388734192        2.6996515392       -3.6814923975
 H         -7.0903255642        3.8144983270       -2.6580334369
 H         -7.8365831404        3.1442524968       -0.4012220148
 H         -6.6365112076        1.3829445583        0.8263639536
 H         -3.1067518752       -2.2048114499        0.0203565886
 H         -0.6698000439       -2.3661714516       -0.0671283350
 H          1.1307699726       -2.0884820855       -1.5011379964
 H          3.5640097605       -2.2914476335       -1.5910072699
  58
  -92.2022546800000       9.251438702423868E-002 !
 N          5.8569339905       -2.4796558479       -3.0954502731
 C          6.0173857423       -1.7772777736       -2.2009286445
 C          6.2956758071       -0.9244741807       -1.1126801325
 C          7.6848006925       -0.7691244155       -0.9268088034
 N          8.8262397552       -0.6847326945       -0.8297069349
 C          5.3389267937       -0.3259890064       -0.3392958696
 C          5.5664693522        0.5627369898        0.7985908570
 C          6.7363228957        1.0230958117        1.3780937323
 C          6.6456700310        1.8769543501        2.4709279041
 C          5.4158161615        2.2636622949        2.9764491518
 C          4.2342319028        1.8067887848        2.4027107348
 C          4.3140144963        0.9600270253        1.3176202203
 C          3.2715129392        0.3290507248        0.5174034868
 C          1.9022738834        0.3982390500        0.6121643878
 C          1.1141650768       -0.3040789398       -0.3104601129
 C         -0.3454191331       -0.2294471192       -0.2370645959
 C         -1.1212372856       -0.1703765088       -1.3962596950
 C         -2.4935793234       -0.0810003153       -1.3306259062
 C         -3.1470165152       -0.0601090897       -0.0951168737
 N         -4.5325722723        0.0316449153       -0.0253539336
 C         -5.2351334752       -0.6084704989        1.0064031485
 C         -6.3339401308        0.0113346224        1.5992974763
 C         -7.0315964391       -0.6271092411        2.6064463254
 C         -6.6429174631       -1.8836151119        3.0412418902
 C         -5.5500522290       -2.5022657914        2.4563801645
 C         -4.8507618834       -1.8753475565        1.4432366835
 C         -5.2433436693        0.7675485385       -0.9850766521
 C         -6.4712970072        0.3067661830       -1.4570447142
 C         -7.1744312875        1.0392398396       -2.3938967506
 C         -6.6642141589        2.2325838447       -2.8781914831
 C         -5.4435493670        2.6935845005       -2.4129950788
 C         -4.7369409656        1.9725830325       -1.4700199624
 C         -2.3755674623       -0.1310107713        1.0682536175
 C         -1.0027184424       -0.2069437409        0.9944159319
 C          1.7408954712       -1.0651505516       -1.2994253982
 C          3.1196387652       -1.1476312994       -1.3953490258
 C          3.8976432754       -0.4464069998       -0.4863161965
 H          7.7031885152        0.7333321693        0.9990923181
 H          7.5517219604        2.2425542488        2.9297560333
 H          5.3730479586        2.9283483928        3.8263503210
 H          3.2772152603        2.1108209362        2.7992737269
 H          1.4335215401        1.0084914522        1.3694805731
 H         -0.6384626292       -0.1720054400       -2.3622835713
 H         -3.0753112215       -0.0327249870       -2.2392959583
 H         -6.6329842334        0.9943689933        1.2657619178
 H         -7.8799200054       -0.1360344306        3.0595031977
 H         -7.1888917471       -2.3782394920        3.8298104120
 H         -5.2445749858       -3.4849053948        2.7839397404
 H         -4.0064265241       -2.3641160541        0.9788869713
 H         -6.8658154446       -0.6279758323       -1.0861329384
 H         -8.1233608051        0.6705531073       -2.7538722820
 H         -7.2146208867        2.8003201176       -3.6124713021
 H         -5.0417648237        3.6265782834       -2.7793774206
 H         -3.7909226102        2.3395351621       -1.0987824370
 H         -2.8646408671       -0.1163947232        2.0311804828
 H         -0.4293042674       -0.2720546270        1.9074651823
 H          1.1343144655       -1.6241161280       -1.9958768089
 H          3.5681313990       -1.7522646206       -2.1672909663
  58
  -92.2022513500000       9.218895956706676E-002 !
 N          5.8418992251       -2.3551050120        3.1781947935
 C          6.0068288815       -1.6892987554        2.2570929570
 C          6.2930421453       -0.8787144122        1.1391618967
 C          7.6836045243       -0.7372443786        0.9535807049
 N          8.8259127552       -0.6624227777        0.8607056579
 C          5.3421289443       -0.3020588511        0.3422203774
 C          5.5776343868        0.5508256516       -0.8209705894
 C          6.7519354313        0.9745767352       -1.4189631786
 C          6.6697917188        1.7958202491       -2.5371251284
 C          5.4437395942        2.1868948998       -3.0484886031
 C          4.2577086512        1.7667742499       -2.4560153172
 C          4.3288659480        0.9515454082       -1.3464247555
 C          3.2804453086        0.3534125537       -0.5284964182
 C          1.9117874036        0.4351871992       -0.6223848987
 C          1.1168354470       -0.2478104896        0.3094703595
 C         -0.3421961494       -0.1716205046        0.2345625635
 C         -1.1215858257       -0.1445785092        1.3931540405
 C         -2.4947853754       -0.0744936294        1.3280302499
 C         -3.1481850059       -0.0362062377        0.0926805202
 N         -4.5345247417        0.0259973800        0.0227326871
 C         -5.2221268896       -0.5882605366       -1.0349705914
 C         -4.8077390124       -1.8254734011       -1.5260801919
 C         -5.4923363798       -2.4244483305       -2.5658167470
 C         -6.6006659508       -1.8078960122       -3.1231495917
 C         -7.0205033812       -0.5821690141       -2.6329985458
 C         -6.3374599850        0.0287964640       -1.5990870994
 C         -5.2674356827        0.6927214348        1.0166666426
 C         -4.8047512224        1.8941635750        1.5512831891
 C         -5.5324398629        2.5449754412        2.5288379106
 C         -6.7309571302        2.0164273549        2.9796956013
 C         -7.1982323036        0.8268082450        2.4454754728
 C         -6.4737275981        0.1644316179        1.4732816703
 C         -2.3730983929       -0.0628364860       -1.0704137703
 C         -0.9996727338       -0.1252948087       -0.9965568818
 C          1.7386999454       -1.0009774472        1.3082630081
 C          3.1163678444       -1.0893978166        1.4087514902
 C          3.9002090507       -0.4078092981        0.4899732040
 H          7.7156848858        0.6797547010       -1.0358170949
 H          7.5793363478        2.1315061456       -3.0116356382
 H          5.4074910638        2.8254046932       -3.9185309676
 H          3.3039489776        2.0736948942       -2.8582001297
 H          1.4497201954        1.0393025249       -1.3885748318
 H         -0.6417989347       -0.1591177838        2.3604346708
 H         -3.0770672480       -0.0576168362        2.2374378225
 H         -3.9513492069       -2.3133840726       -1.0834900951
 H         -5.1628553123       -3.3838292900       -2.9362413902
 H         -7.1345769652       -2.2806417572       -3.9330997564
 H         -7.8817001307       -0.0932619511       -3.0634663802
 H         -6.6605121426        0.9884125808       -1.2224621228
 H         -3.8757565826        2.3130041252        1.1922131749
 H         -5.1644278569        3.4756101878        2.9346095541
 H         -7.2976031280        2.5290418818        3.7417692606
 H         -8.1299037153        0.4061662298        2.7933887157
 H         -6.8345028850       -0.7673968260        1.0626947923
 H         -2.8600722513       -0.0281306714       -2.0338679887
 H         -0.4265467935       -0.1619018934       -1.9112937003
 H          1.1290245693       -1.5500485223        2.0096529587
 H          3.5598980601       -1.6859122770        2.1898024226
  58
  -92.2022487100000       9.193177672557183E-002 !
 N          5.8721473557       -3.1043017400        2.3599178470
 C          6.0274628713       -2.2126419269        1.6529002530
 C          6.3021104741       -1.1275336445        0.7948852284
 C          7.6908718783       -0.9324866447        0.6480402520
 N          8.8323656837       -0.8317037185        0.5711437411
 C          5.3433411595       -0.3624937352        0.1890884880
 C          5.5673929948        0.7752626441       -0.7003521827
 C          6.7361311362        1.3574486152       -1.1600327537
 C          6.6433658232        2.4508989808       -2.0127593287
 C          5.4122836323        2.9540086864       -2.3986957150
 C          4.2317803118        2.3772802383       -1.9425585449
 C          4.3134242728        1.2913727932       -1.0969589175
 C          3.2729358520        0.4888499696       -0.4648611521
 C          1.9031132168        0.5841673672       -0.5261130194
 C          1.1185638249       -0.3365888022        0.1828829421
 C         -0.3418404757       -0.2532389441        0.1397138897
 C         -0.9897835929        0.9834758704        0.1342094402
 C         -2.3639948602        1.0679172941        0.1172373145
 C         -3.1475725385       -0.0892096835        0.0922624704
 N         -4.5355829350       -0.0070331885        0.0799189590
 C         -5.2977588817       -0.9603402269       -0.6114945268
 C         -6.5014401740       -1.4196785409       -0.0791844066
 C         -7.2577920663       -2.3464249876       -0.7702768680
 C         -6.8250088216       -2.8337176587       -1.9926770898
 C         -5.6274577693       -2.3831148370       -2.5235148934
 C         -4.8682124922       -1.4501952470       -1.8440324027
 C         -5.1892529782        1.0295727686        0.7627284673
 C         -6.3229030753        1.6280849817        0.2151757026
 C         -6.9717378856        2.6400482273        0.8960744278
 C         -6.4990058473        3.0751688655        2.1232745365
 C         -5.3712880439        2.4849419730        2.6700557434
 C         -4.7207380104        1.4662384681        2.0010792531
 C         -2.5036660506       -1.3297903303        0.0829562311
 C         -1.1292064349       -1.4059735220        0.1128117054
 C          1.7496250331       -1.3290867222        0.9360440758
 C          3.1285540243       -1.4264818328        1.0096727471
 C          3.9026679993       -0.5145751704        0.3081382435
 H          7.7035633519        0.9797408280       -0.8703099710
 H          7.5484258597        2.9122335609       -2.3776797882
 H          5.3677495202        3.8047837032       -3.0621465734
 H          3.2741860789        2.7726876673       -2.2462792487
 H          1.4314107586        1.3427643304       -1.1325493808
 H         -0.4073690505        1.8924404841        0.1690842696
 H         -2.8455954990        2.0347153250        0.1184313057
 H         -6.8358543441       -1.0463180664        0.8777818697
 H         -8.1880320484       -2.6952113913       -0.3471543641
 H         -7.4177310233       -3.5586908815       -2.5290215374
 H         -5.2857942070       -2.7524725779       -3.4790291867
 H         -3.9409354216       -1.0897639783       -2.2653962093
 H         -6.6880461633        1.2948564350       -0.7453238725
 H         -7.8486247938        3.0960555975        0.4611389672
 H         -7.0070676343        3.8675746011        2.6509991425
 H         -4.9997950105        2.8125426577        3.6295719531
 H         -3.8490293141        0.9981143315        2.4350010065
 H         -3.0939435969       -2.2340031237        0.0628440729
 H         -0.6549810420       -2.3760425987        0.0953066308
 H          1.1462956228       -2.0254961488        1.4984600366
 H          3.5803511738       -2.2000140931        1.6097644541
  58
  -92.2020460700000       7.418887022371871E-002 !
 N          5.8654393512       -3.1431059062       -2.4320448723
 C          6.0181121580       -2.2715920796       -1.6999742616
 C          6.2894018696       -1.2039590671       -0.8191593063
 C          7.6764214360       -1.0497994227       -0.6160073497
 N          8.8157886342       -0.9861967122       -0.4866525653
 C          5.3298019761       -0.4200847933       -0.2400731915
 C          5.5512374439        0.6999496458        0.6724310566
 C          6.7164817647        1.2396228235        1.1895419215
 C          6.6203336451        2.3207365937        2.0575759424
 C          5.3896397906        2.8540807654        2.4022107486
 C          4.2127723816        2.3208744065        1.8876701462
 C          4.2979107623        1.2469828807        1.0272984976
 C          3.2605290133        0.4794953548        0.3489397196
 C          1.8916910860        0.6033153007        0.3722564178
 C          1.1097604607       -0.3059775674       -0.3529464129
 C         -0.3508323171       -0.2137941682       -0.3075939972
 C         -0.9953053516        1.0230488142       -0.3541785817
 C         -2.3685143284        1.1120408679       -0.2907096273
 C         -3.1474545706       -0.0397670149       -0.1540667450
 N         -4.5337234192        0.0437078414       -0.0534138373
 C         -5.2256780213       -0.8327694317        0.7948600093
 C         -4.6812474865       -1.1963117460        2.0260180568
 C         -5.3652886621       -2.0573729516        2.8616808690
 C         -6.6011202615       -2.5606564434        2.4900597354
 C         -7.1481381977       -2.1985668659        1.2700576436
 C         -6.4678447312       -1.3446504238        0.4233680348
 C         -5.2398895565        1.0098536749       -0.7824643806
 C         -4.8498408840        1.3372113913       -2.0806194718
 C         -5.5521812430        2.2853428488       -2.7990753472
 C         -6.6540307799        2.9135549868       -2.2418679925
 C         -7.0468958167        2.5893977050       -0.9535314435
 C         -6.3460585514        1.6486827999       -0.2238074828
 C         -2.5065739725       -1.2806903196       -0.1111694036
 C         -1.1346979704       -1.3631217630       -0.1965318441
 C          1.7385822951       -1.3063777034       -1.0959530342
 C          3.1176378554       -1.4256098963       -1.1399337678
 C          3.8901976868       -0.5337296989       -0.4113025537
 H          7.6836607014        0.8373479809        0.9341471972
 H          7.5224961833        2.7473320442        2.4689082564
 H          5.3424714574        3.6935178419        3.0799525286
 H          3.2551667215        2.7386923736        2.1594873702
 H          1.4164046046        1.3690661923        0.9667380143
 H         -0.4108095511        1.9253009215       -0.4609574115
 H         -2.8515171484        2.0772697596       -0.3320033388
 H         -3.7228404672       -0.7950575501        2.3224611549
 H         -4.9336770638       -2.3289764945        3.8136565846
 H         -7.1346044263       -3.2298852812        3.1474959255
 H         -8.1089281722       -2.5900215705        0.9706419726
 H         -6.8914927157       -1.0701437890       -0.5316154673
 H         -3.9984559287        0.8388163389       -2.5212543444
 H         -5.2421151473        2.5273627800       -3.8049051848
 H         -7.2032961451        3.6498865491       -2.8081867386
 H         -7.9016225438        3.0776525179       -0.5093877969
 H         -6.6484905746        1.4034336130        0.7838696185
 H         -3.0980625438       -2.1790882150       -0.0129557829
 H         -0.6578896334       -2.3311015605       -0.1504390007
 H          1.1340351141       -1.9927830014       -1.6694198177
 H          3.5702049899       -2.2038520043       -1.7330310101
  58
  -92.2017892400000       5.653375881113073E-002 !
 N          5.8840251878       -3.4120331462        1.9016456994
 C          6.0403452441       -2.4250929453        1.3352430314
 C          6.3155993188       -1.2168789554        0.6624639665
 C          7.7036659885       -0.9889753099        0.5681663601
 N          8.8444814926       -0.8607265498        0.5322514008
 C          5.3566324955       -0.3807717964        0.1584924959
 C          5.5809003791        0.8713627655       -0.5614301048
 C          6.7484478007        1.5380924576       -0.8907262651
 C          6.6554734425        2.7374469228       -1.5867050515
 C          5.4254370472        3.2603111883       -1.9489066621
 C          4.2461821499        2.5988820672       -1.6234168362
 C          4.3279525502        1.4094852464       -0.9309627415
 C          3.2878540570        0.5149621909       -0.4368986407
 C          1.9190862729        0.5997291584       -0.5188884452
 C          1.1281867610       -0.3936969997        0.0789452325
 C         -0.3306934886       -0.3050798292        0.0386181155
 C         -0.9752604361        0.9348228542        0.0383422324
 C         -2.3478101401        1.0294945203        0.0312462484
 C         -3.1445161344       -0.1204037738        0.0308533334
 N         -4.5268789318       -0.0217275520        0.0515564608
 C         -5.3416496584       -1.0335207900       -0.4818775452
 C         -6.5042825572       -1.4115724013        0.1877393288
 C         -7.3195941242       -2.3958274541       -0.3364658971
 C         -6.9869314724       -3.0190120262       -1.5280317892
 C         -5.8335730571       -2.6447106899       -2.1979334372
 C         -5.0155431800       -1.6558658950       -1.6853892199
 C         -5.1545656275        1.0934230757        0.6345056343
 C         -6.2536837375        1.6776907063        0.0084133964
 C         -6.8777966070        2.7702428320        0.5794046207
 C         -6.4148814764        3.2954656235        1.7746950544
 C         -5.3255409868        2.7140192671        2.4028441985
 C         -4.6991151448        1.6171541588        1.8428888006
 C         -2.5057275790       -1.3647078809        0.0172604212
 C         -1.1318317106       -1.4498828539        0.0194033110
 C          1.7614838198       -1.4546811996        0.7328313535
 C          3.1396947274       -1.5534170147        0.8099939513
 C          3.9171976961       -0.5638336040        0.2271134470
 H          7.7150337502        1.1473789170       -0.6158929341
 H          7.5595514722        3.2671146233       -1.8460509966
 H          5.3806483115        4.1944555743       -2.4886639292
 H          3.2892865457        3.0112410221       -1.9061909785
 H          1.4556760879        1.4140420566       -1.0547269414
 H         -0.3927099004        1.8434098723        0.0696930728
 H         -2.8175380334        2.0018713062        0.0256473821
 H         -6.7594589259       -0.9296967377        1.1204035334
 H         -8.2159515319       -2.6821206032        0.1931952819
 H         -7.6237708776       -3.7903136113       -1.9331760291
 H         -5.5720877677       -3.1202595345       -3.1315523015
 H         -4.1228169368       -1.3561614484       -2.2150154477
 H         -6.6097106443        1.2700683251       -0.9266166736
 H         -7.7257855013        3.2183017525        0.0833706901
 H         -6.9017242492        4.1516517186        2.2158039352
 H         -4.9651083588        3.1113592006        3.3400175184
 H         -3.8559535313        1.1568186315        2.3374989288
 H         -3.0982433132       -2.2674811913        0.0188209961
 H         -0.6710928879       -2.4259979386       -0.0072574515
 H          1.1613194205       -2.2091045626        1.2178794147
 H          3.5891061316       -2.3852716879        1.3283252245
