  58
        -92.20254651
 N          5.8567558549       -3.9566541995        0.1289658373
 C          6.0168496160       -2.8199884999        0.0937415377
 C          6.2963238132       -1.4384316860        0.0512278867
 C          7.6856128749       -1.1980174770        0.0463499065
 N          8.8275101219       -1.0735877962        0.0448524449
 C          5.3404907516       -0.4600318045        0.0169640702
 C          5.5698422374        0.9825733594       -0.0339564854
 C          6.7408028983        1.7205719332       -0.0543618847
 C          6.6522652856        3.1066007148       -0.1057603361
 C          5.4232425248        3.7441082272       -0.1360999405
 C          4.2405470731        3.0127511358       -0.1149301729
 C          4.3181935790        1.6371490732       -0.0638707012
 C          3.2744282316        0.6199610744       -0.0265129800
 C          1.9054830642        0.7383811533       -0.0310959050
 C          1.1152791059       -0.4196109721        0.0083384528
 C         -0.3431564032       -0.3163417791        0.0050654609
 C         -1.1319017740       -1.2468440312       -0.6753639480
 C         -2.5046726149       -1.1462047732       -0.6856529244
 C         -3.1480849546       -0.1127544392        0.0018395244
 N         -4.5334107942       -0.0092450790       -0.0004801446
 C         -5.3343169320       -1.1600147061       -0.0486786199
 C         -4.9751643684       -2.3034203608        0.6633617338
 C         -5.7721417007       -3.4308565929        0.6140987443
 C         -6.9380021105       -3.4335497870       -0.1339780392
 C         -7.3018693504       -2.2973370713       -0.8379374442
 C         -6.5073811222       -1.1677215359       -0.8015845016
 C         -5.1490222356        1.2508226463        0.0489346722
 C         -6.2976943104        1.4427721628        0.8147487126
 C         -6.9067274915        2.6822900792        0.8541350022
 C         -6.3796124850        3.7457463664        0.1398059053
 C         -5.2377080538        3.5595017234       -0.6221048699
 C         -4.6257766116        2.3219569286       -0.6738273672
 C         -2.3638245511        0.8166019586        0.6916599884
 C         -0.9910823822        0.7180820117        0.6842551548
 C          1.7417746246       -1.6674272845        0.0527748493
 C          3.1200902716       -1.7947539142        0.0611421915
 C          3.8994502499       -0.6481659818        0.0210794158
 H          7.7069337522        1.2423760127       -0.0310449697
 H          7.5592126420        3.6917012188       -0.1221262869
 H          5.3820938453        4.8224169013       -0.1762738591
 H          3.2842939566        3.5135607676       -0.1382790083
 H          1.4387051806        1.7100943845       -0.0897557262
 H         -0.6580433319       -2.0378374404       -1.2374838711
 H         -3.0943642041       -1.8625466640       -1.2384784882
 H         -4.0728582075       -2.2981789833        1.2575823545
 H         -5.4846281962       -4.3098865283        1.1716060144
 H         -7.5595982862       -4.3151001296       -0.1669525819
 H         -8.2075038568       -2.2918047912       -1.4258412163
 H         -6.7878894729       -0.2843327659       -1.3564369751
 H         -6.7044207234        0.6155923968        1.3780949804
 H         -7.7943705726        2.8197778787        1.4533923128
 H         -6.8563619186        4.7132754903        0.1754237780
 H         -4.8250378901        4.3810009221       -1.1886907466
 H         -3.7427302750        2.1737644876       -1.2784757816
 H         -2.8452848327        1.6101256359        1.2440460342
 H         -0.4103111586        1.4317981170        1.2498036891
 H          1.1352153790       -2.5587249359        0.1068377305
 H          3.5679140896       -2.7746851882        0.1038188352
  58
        -92.20225916
 N          5.8523051974       -3.2691370088       -2.2582235733
 C          6.0125724065       -2.3489875787       -1.5907552069
 C          6.2928073194       -1.2248174664       -0.7867473778
 C          7.6823352084       -1.0399434081       -0.6344126359
 N          8.8238339720       -0.9557191281       -0.5404373284
 C          5.3378835839       -0.4175189650       -0.2311916776
 C          5.5679266422        0.7566829375        0.6082828957
 C          6.7391525225        1.3450489513        1.0537227812
 C          6.6513782045        2.4748473730        1.8584309662
 C          5.4228958479        3.0076190461        2.2115348489
 C          4.2400007180        2.4256320555        1.7685995622
 C          4.3168747289        1.3041491775        0.9703152124
 C          3.2726176815        0.4869879786        0.3642911011
 C          1.9037478148        0.5993068672        0.4121671330
 C          1.1137392039       -0.3446574241       -0.2591357774
 C         -0.3457381427       -0.2495402463       -0.2115148216
 C         -0.9860740171        0.9903209507       -0.2545841931
 C         -2.3589244057        1.0856044586       -0.2079267565
 C         -3.1478050240       -0.0632459038       -0.1017968704
 N         -4.5338446079        0.0281926365       -0.0395666658
 C         -5.2695466262       -0.8863766361        0.7288968464
 C         -4.7891374190       -1.3194113259        1.9640348264
 C         -5.5202319136       -2.2171080304        2.7178283577
 C         -6.7398608570       -2.6878528775        2.2595401120
 C         -7.2239716287       -2.2553455445        1.0357326534
 C         -6.4962522355       -1.3641926197        0.2707308427
 C         -5.2106152507        1.0405106860       -0.7357327781
 C         -4.7956426499        1.4201828244       -2.0114667458
 C         -5.4684481167        2.4159572342       -2.6929952966
 C         -6.5652327932        3.0395903409       -2.1209387572
 C         -6.9847350931        2.6610608410       -0.8560932380
 C         -6.3135411047        1.6720263435       -0.1631913093
 C         -2.5114486885       -1.3069725367       -0.0564666349
 C         -1.1387466207       -1.3946308309       -0.1166405517
 C          1.7383525391       -1.3742115326       -0.9662785168
 C          3.1167924968       -1.4884463062       -1.0272101580
 C          3.8964539130       -0.5564907322       -0.3587824669
 H          7.7047751336        0.9449655305        0.7893124484
 H          7.5584524297        2.9410111430        2.2121713539
 H          5.3823038537        3.8859946361        2.8383774129
 H          3.2842465406        2.8439487849        2.0461976550
 H          1.4362148723        1.3880609756        0.9822443943
 H         -0.3988412266        1.8920659243       -0.3480783791
 H         -2.8345645148        2.0546718693       -0.2439455643
 H         -3.8438338091       -0.9435265453        2.3281533234
 H         -5.1382876235       -2.5435504403        3.6737682694
 H         -7.3096965069       -3.3863201508        2.8529485817
 H         -8.1720095622       -2.6200782210        0.6692771943
 H         -6.8707164301       -1.0334482261       -0.6871123288
 H         -3.9479575349        0.9258943204       -2.4636903029
 H         -5.1388734192        2.6996515392       -3.6814923975
 H         -7.0903255642        3.8144983270       -2.6580334369
 H         -7.8365831404        3.1442524968       -0.4012220148
 H         -6.6365112076        1.3829445583        0.8263639536
 H         -3.1067518752       -2.2048114499        0.0203565886
 H         -0.6698000439       -2.3661714516       -0.0671283350
 H          1.1307699726       -2.0884820855       -1.5011379964
 H          3.5640097605       -2.2914476335       -1.5910072699
  58
        -92.20204607
 N          5.8654393512       -3.1431059062       -2.4320448723
 C          6.0181121580       -2.2715920796       -1.6999742616
 C          6.2894018696       -1.2039590671       -0.8191593063
 C          7.6764214360       -1.0497994227       -0.6160073497
 N          8.8157886342       -0.9861967122       -0.4866525653
 C          5.3298019761       -0.4200847933       -0.2400731915
 C          5.5512374439        0.6999496458        0.6724310566
 C          6.7164817647        1.2396228235        1.1895419215
 C          6.6203336451        2.3207365937        2.0575759424
 C          5.3896397906        2.8540807654        2.4022107486
 C          4.2127723816        2.3208744065        1.8876701462
 C          4.2979107623        1.2469828807        1.0272984976
 C          3.2605290133        0.4794953548        0.3489397196
 C          1.8916910860        0.6033153007        0.3722564178
 C          1.1097604607       -0.3059775674       -0.3529464129
 C         -0.3508323171       -0.2137941682       -0.3075939972
 C         -0.9953053516        1.0230488142       -0.3541785817
 C         -2.3685143284        1.1120408679       -0.2907096273
 C         -3.1474545706       -0.0397670149       -0.1540667450
 N         -4.5337234192        0.0437078414       -0.0534138373
 C         -5.2256780213       -0.8327694317        0.7948600093
 C         -4.6812474865       -1.1963117460        2.0260180568
 C         -5.3652886621       -2.0573729516        2.8616808690
 C         -6.6011202615       -2.5606564434        2.4900597354
 C         -7.1481381977       -2.1985668659        1.2700576436
 C         -6.4678447312       -1.3446504238        0.4233680348
 C         -5.2398895565        1.0098536749       -0.7824643806
 C         -4.8498408840        1.3372113913       -2.0806194718
 C         -5.5521812430        2.2853428488       -2.7990753472
 C         -6.6540307799        2.9135549868       -2.2418679925
 C         -7.0468958167        2.5893977050       -0.9535314435
 C         -6.3460585514        1.6486827999       -0.2238074828
 C         -2.5065739725       -1.2806903196       -0.1111694036
 C         -1.1346979704       -1.3631217630       -0.1965318441
 C          1.7385822951       -1.3063777034       -1.0959530342
 C          3.1176378554       -1.4256098963       -1.1399337678
 C          3.8901976868       -0.5337296989       -0.4113025537
 H          7.6836607014        0.8373479809        0.9341471972
 H          7.5224961833        2.7473320442        2.4689082564
 H          5.3424714574        3.6935178419        3.0799525286
 H          3.2551667215        2.7386923736        2.1594873702
 H          1.4164046046        1.3690661923        0.9667380143
 H         -0.4108095511        1.9253009215       -0.4609574115
 H         -2.8515171484        2.0772697596       -0.3320033388
 H         -3.7228404672       -0.7950575501        2.3224611549
 H         -4.9336770638       -2.3289764945        3.8136565846
 H         -7.1346044263       -3.2298852812        3.1474959255
 H         -8.1089281722       -2.5900215705        0.9706419726
 H         -6.8914927157       -1.0701437890       -0.5316154673
 H         -3.9984559287        0.8388163389       -2.5212543444
 H         -5.2421151473        2.5273627800       -3.8049051848
 H         -7.2032961451        3.6498865491       -2.8081867386
 H         -7.9016225438        3.0776525179       -0.5093877969
 H         -6.6484905746        1.4034336130        0.7838696185
 H         -3.0980625438       -2.1790882150       -0.0129557829
 H         -0.6578896334       -2.3311015605       -0.1504390007
 H          1.1340351141       -1.9927830014       -1.6694198177
 H          3.5702049899       -2.2038520043       -1.7330310101
  58
        -92.20178924
 N          5.8840251878       -3.4120331462        1.9016456994
 C          6.0403452441       -2.4250929453        1.3352430314
 C          6.3155993188       -1.2168789554        0.6624639665
 C          7.7036659885       -0.9889753099        0.5681663601
 N          8.8444814926       -0.8607265498        0.5322514008
 C          5.3566324955       -0.3807717964        0.1584924959
 C          5.5809003791        0.8713627655       -0.5614301048
 C          6.7484478007        1.5380924576       -0.8907262651
 C          6.6554734425        2.7374469228       -1.5867050515
 C          5.4254370472        3.2603111883       -1.9489066621
 C          4.2461821499        2.5988820672       -1.6234168362
 C          4.3279525502        1.4094852464       -0.9309627415
 C          3.2878540570        0.5149621909       -0.4368986407
 C          1.9190862729        0.5997291584       -0.5188884452
 C          1.1281867610       -0.3936969997        0.0789452325
 C         -0.3306934886       -0.3050798292        0.0386181155
 C         -0.9752604361        0.9348228542        0.0383422324
 C         -2.3478101401        1.0294945203        0.0312462484
 C         -3.1445161344       -0.1204037738        0.0308533334
 N         -4.5268789318       -0.0217275520        0.0515564608
 C         -5.3416496584       -1.0335207900       -0.4818775452
 C         -6.5042825572       -1.4115724013        0.1877393288
 C         -7.3195941242       -2.3958274541       -0.3364658971
 C         -6.9869314724       -3.0190120262       -1.5280317892
 C         -5.8335730571       -2.6447106899       -2.1979334372
 C         -5.0155431800       -1.6558658950       -1.6853892199
 C         -5.1545656275        1.0934230757        0.6345056343
 C         -6.2536837375        1.6776907063        0.0084133964
 C         -6.8777966070        2.7702428320        0.5794046207
 C         -6.4148814764        3.2954656235        1.7746950544
 C         -5.3255409868        2.7140192671        2.4028441985
 C         -4.6991151448        1.6171541588        1.8428888006
 C         -2.5057275790       -1.3647078809        0.0172604212
 C         -1.1318317106       -1.4498828539        0.0194033110
 C          1.7614838198       -1.4546811996        0.7328313535
 C          3.1396947274       -1.5534170147        0.8099939513
 C          3.9171976961       -0.5638336040        0.2271134470
 H          7.7150337502        1.1473789170       -0.6158929341
 H          7.5595514722        3.2671146233       -1.8460509966
 H          5.3806483115        4.1944555743       -2.4886639292
 H          3.2892865457        3.0112410221       -1.9061909785
 H          1.4556760879        1.4140420566       -1.0547269414
 H         -0.3927099004        1.8434098723        0.0696930728
 H         -2.8175380334        2.0018713062        0.0256473821
 H         -6.7594589259       -0.9296967377        1.1204035334
 H         -8.2159515319       -2.6821206032        0.1931952819
 H         -7.6237708776       -3.7903136113       -1.9331760291
 H         -5.5720877677       -3.1202595345       -3.1315523015
 H         -4.1228169368       -1.3561614484       -2.2150154477
 H         -6.6097106443        1.2700683251       -0.9266166736
 H         -7.7257855013        3.2183017525        0.0833706901
 H         -6.9017242492        4.1516517186        2.2158039352
 H         -4.9651083588        3.1113592006        3.3400175184
 H         -3.8559535313        1.1568186315        2.3374989288
 H         -3.0982433132       -2.2674811913        0.0188209961
 H         -0.6710928879       -2.4259979386       -0.0072574515
 H          1.1613194205       -2.2091045626        1.2178794147
 H          3.5891061316       -2.3852716879        1.3283252245
