  40
        -70.11767085
 C          5.4742201605        1.1711213211        2.0856889745
 C          4.4774503120        0.5964849542        1.1364768728
 N          3.2304573378        0.7565127142        1.3367896953
 C          2.3489956250        0.2056217389        0.4277536145
 C          0.9884275475        0.3612680949        0.6214107866
 C          0.0946086149       -0.1982533844       -0.2932331485
 N         -1.3018349070       -0.0402022294       -0.0997238890
 C         -2.0816070998       -1.1361790922        0.1620267253
 C         -1.5541193899       -2.4257946479        0.3320827353
 C         -2.3798229472       -3.4935142814        0.5702236226
 C         -3.7784012824       -3.3184177390        0.6558225236
 C         -4.3235652870       -2.0624240499        0.5268319090
 C         -3.5039563579       -0.9625132159        0.2921755632
 O         -4.0723534298        0.2571766740        0.2061932672
 C         -3.2910697809        1.3320731042       -0.0216262953
 C         -3.8974116246        2.5829509379       -0.1116747384
 C         -3.1433416037        3.7008577224       -0.3781984676
 C         -1.7523180279        3.5819684159       -0.5818782644
 C         -1.1345539146        2.3597729320       -0.4989203685
 C         -1.8698667225        1.2051445921       -0.1962015276
 C          0.5624943438       -0.9156492757       -1.4081510756
 C          1.9069909932       -1.0689939612       -1.6092442710
 C          2.8312413712       -0.5154682063       -0.6966156339
 C          4.2436643158       -0.6684103322       -0.8820712009
 O          4.8175787092       -1.2454537777       -1.7777134141
 O          5.0432523442       -0.0656370600        0.1129335626
 H          6.0880199834        0.3721807990        2.4970770797
 H          6.1315701017        1.8559239636        1.5535003194
 H          4.9555551285        1.6928307934        2.8827118845
 H          0.6337982278        0.8997579080        1.4857211321
 H         -0.4858087458       -2.5629723915        0.2780939129
 H         -1.9598612556       -4.4779515140        0.6981640664
 H         -4.4143128976       -4.1694398483        0.8357489158
 H         -5.3859051311       -1.8959171982        0.6099375793
 H         -4.9651495290        2.6405019073        0.0286579888
 H         -3.6134085073        4.6682311707       -0.4444482847
 H         -1.1719121682        4.4607680243       -0.8111413704
 H         -0.0733513067        2.2740520027       -0.6686295285
 H         -0.1531427714       -1.3268346511       -2.1049079873
 H          2.2932163916       -1.6080056573       -2.4595344258
  40
        -70.11717605
 C          5.4011116219       -0.4441101255       -2.4649548030
 C          4.4323760334       -0.3089097430       -1.3391461014
 N          3.1803274446       -0.2720912293       -1.5663239347
 C          2.3268890352       -0.1436258633       -0.4889294173
 C          0.9601947003       -0.0997863540       -0.7063893743
 C          0.0996779744        0.0350616077        0.3799630326
 N         -1.3072390842        0.0757456941        0.1559956815
 C         -2.0098623600       -1.0931297667        0.0537063332
 C         -1.4094503243       -2.3530058637        0.1829854975
 C         -2.1583374031       -3.4963660241        0.0767239514
 C         -3.5493305521       -3.4257796948       -0.1646369846
 C         -4.1675972706       -2.2052341969       -0.2931876984
 C         -3.4280110033       -1.0295611645       -0.1881193570
 O         -4.0651262457        0.1515469030       -0.3152984426
 C         -3.3606312531        1.2958007425       -0.2080382703
 C         -4.0293780050        2.5100915697       -0.3429935739
 C         -3.3403893045        3.6948986364       -0.2416701446
 C         -1.9473606808        3.6891422137       -0.0021792374
 C         -1.2669651467        2.5063501467        0.1311916414
 C         -1.9413693103        1.2814671128        0.0360650957
 C          0.5947345481        0.1258792586        1.6896185683
 C          1.9450773084        0.0782077741        1.9131321666
 C          2.8398341669       -0.0572407787        0.8312637889
 C          4.2578254274       -0.1108733583        1.0396573770
 O          4.8560216328       -0.0603262866        2.0898683083
 O          5.0272311533       -0.2372004617       -0.1354961734
 H          6.0928757679        0.3957608617       -2.4535655984
 H          5.9817690748       -1.3558168244       -2.3382902245
 H          4.8610413463       -0.4731074774       -3.4051038972
 H          0.5793882251       -0.1678017961       -1.7127159724
 H         -0.3481056390       -2.4046942505        0.3689156079
 H         -1.6861623105       -4.4597889828        0.1789947862
 H         -4.1231417391       -4.3342737160       -0.2455889972
 H         -5.2275238917       -2.1245931127       -0.4757377988
 H         -5.0918530319        2.4880183839       -0.5271903504
 H         -3.8597678819        4.6332760910       -0.3460884536
 H         -1.4184709963        4.6251623972        0.0734134588
 H         -0.2029673201        2.4996464913        0.3092223756
 H         -0.1014997446        0.2288310453        2.5086926950
 H          2.3556702210        0.1414335896        2.9082243984
  40
        -70.11712799
 C          5.4756274564        1.5695695369       -1.8255747580
 C          4.4818578915        0.8046041996       -1.0178248139
 N          3.2363022632        0.9149373118       -1.2569583575
 C          2.3545970584        0.2237321805       -0.4492176701
 C          0.9952102638        0.3565797854       -0.6605180667
 C          0.0955061145       -0.2974126772        0.1868190248
 N         -1.2966656498       -0.0992633112        0.0280069134
 C         -2.1250233820       -1.1689397550       -0.1929766791
 C         -1.6499137151       -2.4722788879       -0.4177227705
 C         -2.5216749292       -3.5170310764       -0.5779295016
 C         -3.9169323637       -3.3077912628       -0.5270729607
 C         -4.4143181382       -2.0357072085       -0.3596945131
 C         -3.5479653905       -0.9583651441       -0.2107509143
 O         -4.0743345138        0.2783035606       -0.0997167405
 C         -3.2473652492        1.3313313689        0.0588407140
 C         -3.8151120976        2.5996436791        0.1645046504
 C         -3.0198808495        3.6997139667        0.3799720916
 C         -1.6281772836        3.5411595985        0.5294817357
 C         -1.0494830996        2.3000931994        0.4322623687
 C         -1.8249876218        1.1649628660        0.1575188876
 C          0.5655298534       -1.1183111076        1.2293597892
 C          1.9092899205       -1.2691685561        1.4325880739
 C          2.8363825406       -0.5952889339        0.6066999027
 C          4.2477309563       -0.7118542168        0.8195871462
 O          4.8218488619       -1.3719303942        1.6560684403
 O          5.0473635811        0.0503828816       -0.0602361976
 H          5.9772218744        2.2942459559       -1.1862102098
 H          6.2308180994        0.8926487320       -2.2183495313
 H          4.9670195425        2.0820886788       -2.6348635720
 H          0.6449363754        0.9591282509       -1.4833928049
 H         -0.5853670810       -2.6373004799       -0.4679652885
 H         -2.1414067478       -4.5111841514       -0.7486323521
 H         -4.5891287732       -4.1423337807       -0.6392418900
 H         -5.4748976833       -1.8399707958       -0.3492268938
 H         -4.8866341501        2.6835032891        0.0764815000
 H         -3.4591942542        4.6810162138        0.4531697076
 H         -1.0121193434        4.4024410201        0.7304651066
 H          0.0136488770        2.1909940959        0.5704852569
 H         -0.1495765777       -1.6028428661        1.8779101188
 H          2.2938321258       -1.8867630297        2.2284475050
  40
        -70.11702297
 C          5.4781235546        1.1284491643       -2.1141767343
 C          4.4802010910        0.5699606101       -1.1527954987
 N          3.2325064438        0.7117178197       -1.3658042110
 C          2.3506628702        0.1889437388       -0.4412517508
 C          0.9900467642        0.3387610501       -0.6408846407
 C          0.0951844657       -0.1932155929        0.2893615228
 N         -1.3013015381       -0.0385967131        0.0931767609
 C         -2.0831220749       -1.1408733969       -0.1323240909
 C         -1.5570542997       -2.4347301911       -0.2730302608
 C         -2.3850662978       -3.5088665679       -0.4693832103
 C         -3.7851663202       -3.3367762271       -0.5387903499
 C         -4.3293693131       -2.0777286617       -0.4394563631
 C         -3.5072427744       -0.9710670231       -0.2501688928
 O         -4.0744575838        0.2509331195       -0.1949598956
 C         -3.2904775096        1.3319272595       -0.0091915297
 C         -3.8953216837        2.5857080769        0.0463299267
 C         -3.1387254148        3.7105157088        0.2728607427
 C         -1.7468596903        3.5965549146        0.4723346361
 C         -1.1303572896        2.3717519697        0.4221015298
 C         -1.8681572960        1.2095493455        0.1576291084
 C          0.5617162375       -0.8796837856        1.4237416110
 C          1.9060337932       -1.0276194458        1.6305841241
 C          2.8313629660       -0.4981727895        0.7045872258
 C          4.2431114305       -0.6436915408        0.8976975559
 O          4.8179360469       -1.2045212175        1.8027863727
 O          5.0437488274       -0.0505037619       -0.1043993940
 H          6.4726628343        0.7776695943       -1.8525596671
 H          5.2222809388        0.8251097721       -3.1264520253
 H          5.4535913702        2.2163791846       -2.0718778435
 H          0.6364242620        0.8518412440       -1.5208591796
 H         -0.4879423768       -2.5696174932       -0.2296224359
 H         -1.9662572973       -4.4962268222       -0.5766670871
 H         -4.4231051150       -4.1928947220       -0.6839989103
 H         -5.3929994791       -1.9144814416       -0.5116242351
 H         -4.9641555401        2.6397102986       -0.0873108732
 H         -3.6080108817        4.6797832336        0.3135405320
 H         -1.1648038659        4.4813523909        0.6726094026
 H         -0.0680687051        2.2902988924        0.5869516667
 H         -0.1547340212       -1.2712731876        2.1308815809
 H          2.2909406340       -1.5428121851        2.4960411207
  40
        -70.11682365
 C          5.2150885949       -0.9584866759       -2.5100035400
 C          4.3175848653       -0.6030819518       -1.3730567965
 N          3.0535957068       -0.6176996113       -1.5224427926
 C          2.2670282311       -0.2710452482       -0.4426444565
 C          0.8908626933       -0.2677439388       -0.5798252571
 C          0.0934598780        0.1018396755        0.5019150287
 N         -1.3178621966        0.1193148468        0.3299333911
 C         -1.9989037154       -1.0627851340        0.2459603006
 C         -1.4129105203       -2.2986703973        0.5598492485
 C         -2.1233399223       -3.4612566025        0.4200537709
 C         -3.4515334154       -3.4399873352       -0.0645724576
 C         -4.0565328878       -2.2440486943       -0.3719213968
 C         -3.3652482548       -1.0471477562       -0.2092538946
 O         -3.9870561744        0.1114612145       -0.5073627215
 C         -3.3280421428        1.2754664139       -0.3407567730
 C         -3.9865516632        2.4647336493       -0.6527634652
 C         -3.3432873562        3.6695487417       -0.5092414566
 C         -2.0058193968        3.7112585636       -0.0594240604
 C         -1.3285412725        2.5516228748        0.2248867370
 C         -1.9611071314        1.3090660178        0.1040720356
 C          0.6676416610        0.4541486989        1.7344882616
 C          2.0289037400        0.4409511572        1.8813857222
 C          2.8589164182        0.0836844298        0.7982683289
 C          4.2870313250        0.0711228646        0.9240251460
 O          4.9487304175        0.3329770178        1.9021841106
 O          4.9845817120       -0.2864641517       -0.2491312038
 H          5.8871091587       -0.1281057574       -2.7171736639
 H          5.8226373070       -1.8201444905       -2.2404718099
 H          4.6156650847       -1.1832689067       -3.3856126254
 H          0.4506522269       -0.5393582959       -1.5259838612
 H         -0.3959094443       -2.3118693223        0.9197711438
 H         -1.6685170188       -4.4040091418        0.6772216688
 H         -3.9896187952       -4.3655997238       -0.1862969695
 H         -5.0715875800       -2.2013083194       -0.7341219151
 H         -5.0051014806        2.4045923713       -1.0022266085
 H         -3.8555770099        4.5879887251       -0.7449468094
 H         -1.5117069187        4.6625838361        0.0515250212
 H         -0.2992528593        2.5834814650        0.5455830298
 H          0.0221820065        0.7227924305        2.5576663913
 H          2.4985406086        0.7003033955        2.8169676869
