97
 energy: -139.461827967055 gnorm: 0.000065737485 xtb: 6.7.1 (edcfbbe)
C           -7.94081832637252        2.00444556691264       -2.52531580201071
C           -6.88374111776243        1.57744677750197       -1.51495947166551
C           -6.59843897202947        2.67879510804875       -0.49455353913970
C           -5.54054788324352        2.26829594153347        0.53010790342185
C           -6.08903383959075        1.31444583760368        1.59357439318617
C           -4.96690005859167        0.51745182307071        2.26795370819980
N           -4.24317692262822       -0.27076181062167        1.29209439208307
C           -2.84769806704617       -0.25103563663884        1.28331057209124
C           -2.12039052217543       -0.06929222372378        2.39832055969679
C           -0.63114762262604        0.03975523227983        2.42105660231664
C            0.04954113397070       -0.14647705111836        1.08514785563488
C            1.39114483214373       -0.10996344276789        1.02772536792263
C            2.26285137230644       -0.26736507305720       -0.17870391135943
C            3.20920504226939        0.89765602312542       -0.33982504599772
C            2.90555965144340        2.22796789127385       -0.51612435487958
C            3.94493515976091        3.15225704581640       -0.63407042914422
C            3.63943289153296        4.57526660405766       -0.86153097702288
C            2.83203887277058        4.92288916125115       -1.91939157028403
C            2.56178870926843        6.26362991188965       -2.21848935515093
C            3.10199388421979        7.26059937444620       -1.45626484602841
C            3.91073256545075        6.95233656114679       -0.34296309680325
C            4.45545324470756        7.96667969035102        0.47262266014445
C            5.21103578565057        7.65731285347000        1.56757263743232
C            5.44021940450271        6.31516583814790        1.90497054476659
C            4.93380386693264        5.30894301637456        1.13048918696205
C            4.17649507989373        5.59304744949159       -0.02617478017884
C            5.26852713513331        2.71281003032702       -0.58702088192103
C            5.57721966241518        1.37616065178893       -0.41019573099460
C            4.54222503863125        0.46380837943328       -0.27875560581544
C            4.55039283967051       -0.97394445215795       -0.07925014203050
C            5.59507597944496       -1.87456051748197        0.05403598088502
C            5.29928928044961       -3.21226762316049        0.24554106591580
C            3.98162549113997       -3.66543954623078        0.29918680005470
C            3.70927919998659       -5.09480128333857        0.52991185377897
C            4.25739875414642       -5.71086251882816        1.63064305922656
C            3.99317721476649       -7.05516423507680        1.91914175997628
C            3.17731027892651       -7.78593602748807        1.10242279151798
C            2.61307417523666       -7.20478286435181       -0.05185429202502
C            1.78861727114891       -7.95016234355781       -0.92109221953221
C            1.27148693772797       -7.38727355749547       -2.05298029087277
C            1.57160131777167       -6.05514957217205       -2.37395118203414
C            2.36155318534658       -5.30389062639011       -1.54916795061371
C            2.88711790793668       -5.84420079093187       -0.35588324028850
C            2.93116752744087       -2.75361440429307        0.17181926949180
C            3.22209485381413       -1.42285706264465       -0.02033973096589
C           -0.79785000348353       -0.34877734776218       -0.05598144231629
C           -2.14284048174233       -0.40324329585394        0.02401178464283
S           -3.06254083358085       -0.56187079048973       -1.47126474287223
C           -4.51277155337989       -1.36413366104492       -0.85606643394840
C           -5.22866522266305       -2.18131811361516       -1.71492633578402
C           -6.39821112002973       -2.78106610643923       -1.28805608394952
C           -6.83244954081932       -2.57306020516825        0.01081436821687
C           -6.11440449554042       -1.76407890352324        0.87026004493745
C           -4.94470299487889       -1.12572662883020        0.45146505684045
H           -8.87847754704289        2.23440728949774       -2.02337328855202
H           -7.61667684381420        2.89116831826346       -3.06594972447643
H           -8.12287802123267        1.21027570005064       -3.24552223331546
H           -7.22112204715942        0.67121847080384       -1.00749820102002
H           -5.95874760560679        1.32981849281644       -2.04079450728534
H           -6.24950187175586        3.56461335858704       -1.03024206470199
H           -7.52234229658655        2.94885129271011        0.02261559021723
H           -5.13800247811869        3.15760105286262        1.02056566922139
H           -4.71667423967385        1.78746299654806       -0.00091935041545
H           -6.79667669677059        0.62547947379015        1.13369939205410
H           -6.62479381197266        1.87783088327937        2.35980459788313
H           -5.37183548076156       -0.10303370995989        3.07792921416734
H           -4.25781192431145        1.22246513578176        2.70564536143734
H           -2.60022132939834        0.02312114074885        3.36104098130750
H           -0.35932367663466        1.02259633158167        2.82845352920834
H           -0.24154261471286       -0.69752286851991        3.13320639860481
H            1.94365454607440        0.04650569280950        1.94597534670844
H            1.65956336871013       -0.39484170331220       -1.08089627897971
H            1.87804244756184        2.56160723129374       -0.54862056915566
H            2.42071768955499        4.14632134759968       -2.54856337454611
H            1.93295141643221        6.49990208523699       -3.06462654573420
H            2.91328334110008        8.29882152392489       -1.68966462329054
H            4.25542085616793        8.99748777779181        0.21556410456048
H            5.62474769107354        8.44006401334654        2.18668437545839
H            6.01774423219943        6.08166725595619        2.78775786332828
H            5.09886793725380        4.27834664196732        1.40765553924794
H            6.06321459292327        3.43468926337490       -0.71120790784647
H            6.60711577038740        1.05248836923154       -0.37874785367557
H            6.62149026908489       -1.54152041314339        0.00993887699839
H            6.10078382078547       -3.93079402860573        0.34177325463098
H            4.88473827951271       -5.13875504330265        2.29958864876158
H            4.43318637583809       -7.50362603266687        2.79811133875050
H            2.95712573393365       -8.82060703477122        1.32381612326180
H            1.57983143330270       -8.98183817119780       -0.67462770883906
H            0.64079742432949       -7.96486222921665       -2.71310401443841
H            1.17700249205884       -5.62732929665672       -3.28414655828802
H            2.60372197909282       -4.28541210147956       -1.81386000652003
H            1.90668589318845       -3.09097540327707        0.24258378717402
H           -0.34367396675957       -0.45152159707753       -1.02971400558261
H           -4.86631676330474       -2.32483659553335       -2.72148126619041
H           -6.96224000468264       -3.40738830105781       -1.96135557796835
H           -7.73745269964463       -3.04657513640782        0.36144766131918
H           -6.46250864041357       -1.62745852678031        1.88201027257298
