97
 energy: -139.404795756312 gnorm: 0.000055600624 xtb: 6.7.1 (edcfbbe)
C            1.32272952561781       -5.65250703484351       -2.63809020033243
C            2.25156412282224       -6.59189128940864       -1.87729043033267
C            2.52447392863368       -6.13350093316022       -0.44434529834277
C            3.35323573146653       -4.85423655824054       -0.37674198496247
C            3.62863926943074       -4.42899583567311        1.06361167884220
C            4.39199075820428       -3.10195425703401        1.11522015352372
N            3.64175740740508       -2.06562853912629        0.44471426247186
C            2.34377916465211       -1.75217166675706        0.86758915561105
C            1.95114050442731       -1.87129595016358        2.19691333250861
C            0.60520945216786       -1.45793549402031        2.67546693650106
C           -0.14887192680259       -0.58621807013719        1.69874325456659
C           -1.12381425837282        0.27540002314232        2.20943096511422
C           -1.68537074932568        1.45112137235477        1.46770983977266
C           -0.72093995880577        2.05561583936308        0.47386144271361
C            0.55231087982209        2.52578364270099        0.70017520201605
C            1.35492011106111        2.87719526911580       -0.38950773582762
C            2.74489831330469        3.32825376831915       -0.21405311377392
C            3.16798834593300        4.44305918999445       -0.90382838107693
C            4.47051591171082        4.93656109686456       -0.77570615887603
C            5.35819324771642        4.32004363133711        0.05945037576234
C            4.97668346119331        3.17461869635429        0.78661989098268
C            5.88034772660036        2.53924344907053        1.66360057706891
C            5.51325934664391        1.42981943038610        2.36918203109041
C            4.23363883095335        0.88701152114788        2.19359240997458
C            3.33954653374988        1.47189201963490        1.34141289960686
C            3.66252780777889        2.65238183344231        0.64059501296857
C            0.82106213848143        2.80934904021063       -1.67789654624662
C           -0.47967782593227        2.40020679729160       -1.90570591465081
C           -1.25182826301595        2.00665407319027       -0.82483121044863
C           -2.58000387161936        1.42478942017434       -0.75910739968075
C           -3.51615649614975        1.16944896825343       -1.74872392498483
C           -4.71671474523085        0.58036509320302       -1.39536914718691
C           -4.99259965708487        0.23592415774388       -0.07223199829602
C           -6.26300242555886       -0.42064206872294        0.28230754492052
C           -6.23033237844438       -1.64049567630291        0.91629033758644
C           -7.40901443368675       -2.32785484349599        1.23039041310164
C           -8.62415122588099       -1.79134242504629        0.91039203561678
C           -8.70810199385135       -0.53001686836895        0.28540654056468
C           -9.95365037446220        0.05334031482062       -0.02933951003364
C          -10.02421376134068        1.28943453506835       -0.60611367326050
C           -8.84866494631850        2.00436200061260       -0.87968669890574
C           -7.62591922346610        1.46372195207289       -0.59479048298470
C           -7.51569556611766        0.17683107672383       -0.02577209314978
C           -4.03997071004964        0.47824388436414        0.91887206749904
C           -2.85140164096157        1.07713117853167        0.57286053146772
C            0.19198535815513       -0.67200232401124        0.36978874891022
C            1.43465933645200       -1.23901853836051       -0.04983243709339
S            1.90853821884103       -1.00343829461840       -1.72297178454955
C            3.58809010834569       -0.51306896829446       -1.40526350264324
C            4.16884276399872        0.46868812037996       -2.18343156575595
C            5.48892350108957        0.82632736819375       -1.96881104947250
C            6.20899186884174        0.19488346134336       -0.97147564485449
C            5.61699925489811       -0.76799528791590       -0.17363772531304
C            4.28787927678901       -1.13772237348455       -0.36985339387293
H            0.38645327876627       -5.52475573154923       -2.09897189714310
H            1.77550308852480       -4.67405151024627       -2.77345455613742
H            1.09878345882572       -6.05970448936902       -3.62155254139486
H            1.79818863185113       -7.58577359733502       -1.84460732508611
H            3.19920602610791       -6.67974802551038       -2.41379440751324
H            1.57242361763738       -5.97263883021483        0.06720846611876
H            3.05508037037235       -6.92836146862960        0.08689826760953
H            2.81993350021685       -4.04932840656550       -0.88261453537915
H            4.30140998470294       -5.00741320541479       -0.89840550680972
H            4.22077061091805       -5.19200981036070        1.57329389147943
H            2.68068839909698       -4.32637991281827        1.59479365753584
H            5.33413324317642       -3.22388302636918        0.57694120731877
H            4.62632586836673       -2.83944367697323        2.15638497842128
H            2.63677723542426       -2.23996921434944        2.94193130204697
H           -0.01554528047596       -2.35041032467876        2.86903450106634
H            0.70269649914169       -0.95104539299617        3.64347847823913
H           -1.44486222019747        0.14686537704014        3.23234185390481
H           -2.01477690983937        2.19876651280580        2.19929068783384
H            0.93151124165122        2.61683377611649        1.70761531695731
H            2.46984944850911        4.96834214517920       -1.53991038016908
H            4.76015830522734        5.81585377487764       -1.33284966363989
H            6.36190755201110        4.70219843532955        0.18003199973574
H            6.87314884050318        2.95419664803716        1.76785947545589
H            6.20691608826372        0.95720058652667        3.04971050427820
H            3.95382987474995       -0.00684097462511        2.73178656825402
H            2.37295316013743        1.01743634189234        1.19401955403826
H            1.45230689694035        3.06114666870453       -2.51772253858054
H           -0.87147931118862        2.35513438660084       -2.91101309092216
H           -3.31367445847324        1.42407065034637       -2.77847577144512
H           -5.45198313075346        0.36120802387960       -2.15649206254382
H           -5.27519727969172       -2.08806288409270        1.15243797934837
H           -7.34597047878620       -3.28987145401198        1.71809566147225
H           -9.53874066275350       -2.32083091940047        1.13654288564028
H          -10.85423629686405       -0.49772376894330        0.20283472371824
H          -10.98199967509581        1.72914501415049       -0.84364196073753
H           -8.91724657081968        2.99123175132153       -1.31403626126573
H           -6.72600663703962        2.02712637453106       -0.79220450362405
H           -4.25259568525020        0.21128165195636        1.94413737509760
H           -0.42616533994768       -0.24269291038753       -0.39745491383744
H            3.58658047107249        0.93312650088558       -2.96421565942963
H            5.94746367258405        1.58957999050416       -2.57777997754946
H            7.24003497402942        0.46293282123613       -0.79630500564671
H            6.18913679926049       -1.21915224394812        0.62188044815344
