  75
  -109.430040374500       0.219974964118506      !
 C          2.8980349592        4.8921552498       -0.4279783444
 C          2.9294029148        3.7534025267        0.5949569827
 C          2.8573654839        4.3689448715        1.9997581118
 C          4.2515288981        2.9925445256        0.4249915051
 C          1.7766207423        2.7787326159        0.4217709711
 C          0.7968041996        2.9274039077       -0.5529702817
 C         -0.2233827367        2.0056165659       -0.6978424663
 C         -0.2892698261        0.9033085166        0.1430467079
 N         -1.2863819732       -0.0731535602       -0.0177271094
 C         -1.0939770021       -1.4515847348       -0.0255307639
 C          0.1470418643       -2.1273352404        0.0182857880
 C          0.1852851525       -3.3751603322        0.6883545579
 C          1.3619971932       -3.9202083927        1.0911305619
 C          2.6117475467       -3.2693832903        0.8169227822
 C          3.8238564560       -3.7515119179        1.3053604513
 C          5.0206023339       -3.1300247742        0.9885408616
 C          5.0538386782       -2.0327892602        0.1152657512
 C          6.2651651326       -1.4065044392       -0.2666642396
 C          6.2637630888       -0.3534359601       -1.1627276655
 C          5.0860145483        0.1065905098       -1.7135297449
 C          3.8429627457       -0.4757394045       -1.3532079732
 C          2.6298773628       -0.0694628243       -1.9198581418
 C          1.4295826596       -0.6294563484       -1.5128721698
 C          1.3868923828       -1.5895394137       -0.5034858911
 C          2.6073852732       -2.1245098746       -0.0229249895
 C          3.8330986316       -1.5414439933       -0.4166836524
 N         -2.2693049992       -2.0755366932       -0.0266712417
 C         -3.2262395243       -1.1343507856       -0.0544749861
 C         -4.6318286302       -1.5055491059       -0.0377488562
 C         -5.0091645754       -2.7283445032       -0.5933585618
 C         -6.3316490721       -3.1249341792       -0.5787424126
 C         -7.2952340596       -2.3122800367       -0.0025515297
 C         -6.9255114423       -1.1053744718        0.5686884162
 C         -5.6040997075       -0.7013102692        0.5555435407
 C         -2.6403866080        0.1416536245       -0.0482588353
 C         -3.2552924291        1.4550241217       -0.0655657206
 C         -4.2841180245        1.7255691047       -0.9717826170
 C         -4.8803643546        2.9702164079       -0.9998794682
 C         -4.4649072219        3.9638521718       -0.1268056870
 C         -3.4509646899        3.7019646659        0.7804483337
 C         -2.8473667769        2.4599847647        0.8140541183
 C          0.6635960645        0.7552587793        1.1448545987
 C          1.6791815827        1.6787917948        1.2711043499
 H          2.9648940979        4.5078773670       -1.4429714285
 H          1.9914182673        5.4847919307       -0.3288888607
 H          3.7480744316        5.5507931876       -0.2625495768
 H          2.9477091363        3.6085581954        2.7703325486
 H          3.6630640302        5.0873254496        2.1346716651
 H          1.9088598375        4.8843551526        2.1373071666
 H          4.2972022864        2.5326747479       -0.5593270328
 H          5.0921882653        3.6752710356        0.5291848010
 H          4.3584632424        2.2049990345        1.1657147606
 H          0.8185242742        3.7642842921       -1.2312364788
 H         -0.9600586549        2.1324479329       -1.4777017492
 H         -0.7607110237       -3.8271428385        0.9449190924
 H          1.3791677611       -4.8400810246        1.6564880184
 H          3.8239531183       -4.6251265587        1.9418817829
 H          5.9484619042       -3.5040129189        1.3968449245
 H          7.1936588908       -1.7740522760        0.1446149526
 H          7.2005119895        0.1066474409       -1.4445337373
 H          5.0947429250        0.9089687735       -2.4369538068
 H          2.6319333996        0.6969458925       -2.6815242294
 H          0.5135351109       -0.3216296070       -1.9942834205
 H         -4.2451205094       -3.3517528609       -1.0311624350
 H         -6.6147879307       -4.0715314782       -1.0158506409
 H         -8.3301421650       -2.6215939854        0.0087967434
 H         -7.6715163100       -0.4771895356        1.0337682754
 H         -5.3218421740        0.2299795597        1.0234849121
 H         -4.6017834367        0.9522749025       -1.6557977259
 H         -5.6713816224        3.1686941459       -1.7080935000
 H         -4.9323626806        4.9368568281       -0.1511571097
 H         -3.1301303349        4.4694071952        1.4695756505
 H         -2.0708261892        2.2581667231        1.5373983498
 H          0.6075483481       -0.0887608306        1.8164206081
 H          2.4104616626        1.5277213340        2.0497985684
  75
  -109.430030761600       0.217748650714049      !
 C          3.9559229945        3.3811543353        1.6171641615
 C          2.9464431336        3.7262119895        0.5194391799
 C          3.6915322818        3.7346377302       -0.8221762229
 C          2.3721591914        5.1198943307        0.8105514131
 C          1.8071917029        2.7242645288        0.4379922963
 C          0.8116349659        2.8927825715       -0.5225989270
 C         -0.2210852642        1.9897768452       -0.6646827258
 C         -0.2876518886        0.8802449958        0.1699174775
 N         -1.2896897317       -0.0900259330        0.0044312095
 C         -1.1010769871       -1.4688250561       -0.0248357734
 C          0.1408061213       -2.1437456021        0.0083139506
 C          0.1863028342       -3.3976999698        0.6661734856
 C          1.3660369003       -3.9347239125        1.0713246522
 C          2.6108028538       -3.2672705495        0.8140849905
 C          3.8240018277       -3.7366825010        1.3121362230
 C          5.0155057851       -3.0966654868        1.0131320531
 C          5.0437645673       -1.9932382456        0.1474745771
 C          6.2503736759       -1.3472332898       -0.2159380320
 C          6.2443110858       -0.2897639217       -1.1067078042
 C          5.0667527058        0.1560501195       -1.6698590940
 C          3.8278027557       -0.4447456474       -1.3264015683
 C          2.6153044491       -0.0523081323       -1.9046351982
 C          1.4185126651       -0.6288924944       -1.5111983495
 C          1.3785552655       -1.5933154128       -0.5058400352
 C          2.6008005978       -2.1171218530       -0.0182043585
 C          3.8226010285       -1.5155929124       -0.3956771493
 N         -2.2780490698       -2.0893115469       -0.0351479959
 C         -3.2323357302       -1.1446953932       -0.0490844767
 C         -4.6397741891       -1.5086319359       -0.0467185972
 C         -5.6131753210       -0.7031212958        0.5431009455
 C         -6.9383278731       -1.0946552457        0.5319038283
 C         -7.3108483350       -2.2909979274       -0.0594270530
 C         -6.3460973736       -3.1068141588       -0.6290978069
 C         -5.0199949445       -2.7224005457       -0.6201417959
 C         -2.6425191345        0.1294037730       -0.0237291590
 C         -3.2486709041        1.4471304602       -0.0242481272
 C         -2.8325879272        2.4372663221        0.8682526098
 C         -3.4229292188        3.6859866771        0.8479267202
 C         -4.4321578312        3.9688618742       -0.0582418476
 C         -4.8563290762        2.9896851290       -0.9434208202
 C         -4.2727571923        1.7387287913       -0.9291902244
 C          0.6721379472        0.7175189810        1.1599591619
 C          1.7066481066        1.6254239238        1.2822801257
 H          3.4872615230        3.3867587682        2.5986229703
 H          4.4056053613        2.4067210899        1.4392903342
 H          4.7520124709        4.1229326016        1.6220872311
 H          3.0372166821        4.0246270469       -1.6397463427
 H          4.5217967456        4.4366593436       -0.7843199721
 H          4.0851704340        2.7422977599       -1.0297443851
 H          1.6951310452        5.4427896172        0.0245492834
 H          1.8245283939        5.1125003587        1.7507583964
 H          3.1773038406        5.8474137892        0.8863098435
 H          0.8431086516        3.7383829716       -1.1924218727
 H         -0.9653867309        2.1302666645       -1.4347944934
 H         -0.7567630247       -3.8603639009        0.9142464915
 H          1.3889017781       -4.8593162725        1.6286558224
 H          3.8291405757       -4.6144286215        1.9428576609
 H          5.9437360976       -3.4601168602        1.4299851815
 H          7.1791979476       -1.7034665584        0.2042703163
 H          7.1776209090        0.1850636765       -1.3754825696
 H          5.0737932416        0.9595341468       -2.3920051145
 H          2.6154455438        0.7174463146       -2.6626217633
 H          0.5024689378       -0.3286531817       -1.9976245709
 H         -5.3294676631        0.2198458255        1.0263500904
 H         -7.6852385168       -0.4645386214        0.9929606818
 H         -8.3488830799       -2.5896549771       -0.0688648003
 H         -6.6315311612       -4.0455071649       -1.0814158140
 H         -4.2554250438       -3.3472360637       -1.0551075687
 H         -2.0594282945        2.2189321532        1.5904541402
 H         -3.0949188073        4.4421879979        1.5459884420
 H         -4.8890785313        4.9470641556       -0.0725733246
 H         -5.6437025114        3.2045837209       -1.6507959808
 H         -4.5967189239        0.9768642005       -1.6230197946
 H          0.6128150320       -0.1290167530        1.8282126852
 H          2.4399225319        1.4523757688        2.0518681903
  75
  -109.429516391700       0.126347727060425      !
 C          2.2487064655        5.4254688516        3.0696729839
 C          1.6418440930        5.5487136851        1.6648033786
 C          2.7575620778        5.9503628330        0.6964532882
 C          0.5753666147        6.6532279964        1.6525323653
 C          0.9879364469        4.2287247613        1.2906081643
 C          1.3703514489        3.4812481049        0.1818442827
 C          0.7463626946        2.2891388503       -0.1336963342
 C         -0.2804939225        1.8058777599        0.6681002290
 N         -0.9413517518        0.6124984885        0.3321241918
 C         -0.3826026715       -0.6307706601        0.0360347182
 C          0.9759094017       -0.9792315387        0.2282139290
 C          1.7623226761       -0.2884707448        1.1818388575
 C          3.0649888321       -0.5965828383        1.4082948124
 C          3.7209106286       -1.6346932164        0.6733962803
 C          5.0638986361       -1.9397755943        0.8782750056
 C          5.6788722060       -2.9633994002        0.1774816368
 C          4.9613595027       -3.7185084617       -0.7601762910
 C          5.5651222902       -4.7721398519       -1.4900885541
 C          4.8381517539       -5.5048500050       -2.4103961445
 C          3.5091158694       -5.2237541279       -2.6416274228
 C          2.8568187193       -4.1776901775       -1.9353464156
 C          1.5111011546       -3.8635578172       -2.1432040189
 C          0.8973021562       -2.8344609636       -1.4455971317
 C          1.5894074769       -2.0828474650       -0.4967292863
 C          2.9596844421       -2.3770148111       -0.2679556886
 C          3.5907436845       -3.4218226892       -0.9855533007
 N         -1.3402618356       -1.4599366347       -0.3722584007
 C         -2.5075684429       -0.7987885316       -0.3309239669
 C         -3.7398261363       -1.4474665986       -0.7474644105
 C         -3.8360292764       -2.8351223546       -0.6362506237
 C         -4.9858365492       -3.4901373592       -1.0300936270
 C         -6.0527824028       -2.7726683589       -1.5474650709
 C         -5.9566659961       -1.3969046402       -1.6811311016
 C         -4.8092221890       -0.7346542856       -1.2881658261
 C         -2.2915923521        0.5132387939        0.1113786557
 C         -3.2299802390        1.5985874848        0.3296485830
 C         -4.4040543767        1.3615926496        1.0490127234
 C         -5.3050229585        2.3834796178        1.2714076675
 C         -5.0534809397        3.6557675731        0.7812760567
 C         -3.8962264957        3.8976854160        0.0592119264
 C         -2.9885992079        2.8810406264       -0.1666973929
 C         -0.6750807721        2.5379101149        1.7829707485
 C         -0.0451199024        3.7284068280        2.0808593257
 H          1.4874276144        5.2123022497        3.8147990859
 H          2.9829874751        4.6229723780        3.0922683109
 H          2.7437166822        6.3539424870        3.3456130834
 H          2.3735065833        6.0805536946       -0.3126884172
 H          3.1892061537        6.8969979525        1.0149599299
 H          3.5516134584        5.2074281799        0.6838660935
 H         -0.2152751742        6.4506672788        2.3696976226
 H          1.0259370444        7.6110528964        1.9036751487
 H          0.1268701408        6.7316299820        0.6641765425
 H          2.1623649469        3.8215604936       -0.4641695129
 H          1.0543696936        1.7249312773       -1.0017843201
 H          1.2955275519        0.4708551654        1.7907251023
 H          3.6264215557       -0.0728156627        2.1681496536
 H          5.6287648571       -1.3643260433        1.5982873740
 H          6.7210576279       -3.1899635418        0.3502047237
 H          6.6072949358       -4.9943054882       -1.3141470534
 H          5.3199958492       -6.3046907897       -2.9551659579
 H          2.9423014497       -5.7929390860       -3.3633529225
 H          0.9418134061       -4.4336974879       -2.8631884517
 H         -0.1414597552       -2.6142538263       -1.6279951005
 H         -2.9945849231       -3.3786912019       -0.2349957600
 H         -5.0531886464       -4.5641559952       -0.9340710927
 H         -6.9536857797       -3.2842254150       -1.8532117405
 H         -6.7801062425       -0.8362175029       -2.0992968110
 H         -4.7351754245        0.3348770235       -1.4160877796
 H         -4.5946557681        0.3711706401        1.4358012182
 H         -6.2069135137        2.1887963482        1.8329168463
 H         -5.7591090558        4.4538120247        0.9576501836
 H         -3.7003734116        4.8843302293       -0.3343251522
 H         -2.0993425988        3.0740227539       -0.7486361617
 H         -1.4686848002        2.1671192836        2.4147690287
 H         -0.3722092843        4.2721691968        2.9536564522
  75
  -109.429477218000       0.121217255689229      !
 C          2.4469477736        6.1109996974       -0.3280072597
 C          1.7677721936        5.6227610289        0.9595732589
 C          0.7208143691        6.6476586894        1.4180423444
 C          2.8372639741        5.5108842731        2.0493402097
 C          1.0732850306        4.2997609175        0.6818018521
 C          0.0794057964        4.2389536472       -0.2930291959
 C         -0.5831906100        3.0637421859       -0.5819739782
 C         -0.2633238276        1.9009476102        0.1105635611
 N         -0.9498465340        0.7034184428       -0.1493305426
 C         -0.4056459762       -0.5591540011       -0.3818660073
 C          0.9671776315       -0.8141419965       -0.6177021292
 C          1.7974277538        0.2002188006       -1.1529024784
 C          3.1230899587        0.0096005008       -1.3751472776
 C          3.7576288837       -1.2323686476       -1.0535945965
 C          5.1244870033       -1.4246365103       -1.2352412477
 C          5.7202700476       -2.6398421860       -0.9419169670
 C          4.9577393443       -3.7105190033       -0.4559844250
 C          5.5407820715       -4.9650263643       -0.1498643633
 C          4.7684248127       -6.0085802919        0.3265701355
 C          3.4128733074       -5.8510551493        0.5172662976
 C          2.7797122861       -4.6127493012        0.2261172992
 C          1.4080656149       -4.4157864891        0.4075825274
 C          0.8146761204       -3.1938828388        0.1292966312
 C          1.5565961335       -2.1191564618       -0.3593130259
 C          2.9513694986       -2.2925776243       -0.5606416494
 C          3.5611187746       -3.5356584485       -0.2652375719
 N         -1.3814530185       -1.4621426333       -0.4252016813
 C         -2.5473674293       -0.8198933754       -0.2481010301
 C         -3.8006945262       -1.5557627647       -0.2234586427
 C         -3.8857104020       -2.7564392197       -0.9293940388
 C         -5.0552726388       -3.4901488311       -0.9230566416
 C         -6.1537692652       -3.0419477339       -0.2066566550
 C         -6.0702034213       -1.8616687274        0.5142480646
 C         -4.9031614101       -1.1216046120        0.5114005383
 C         -2.3106115192        0.5499473681       -0.0714834728
 C         -3.2392769273        1.6441489239        0.1445794051
 C         -3.0353298577        2.5827629481        1.1577850825
 C         -3.9333208364        3.6165398538        1.3408053505
 C         -5.0438610611        3.7330978468        0.5209033369
 C         -5.2581374319        2.8013532859       -0.4830833190
 C         -4.3663433460        1.7647100142       -0.6721569923
 C          0.7221591467        1.9423106184        1.0895924035
 C          1.3805581503        3.1261854335        1.3619773169
 H          3.1605572945        5.3693338443       -0.6802752617
 H          1.7222335368        6.2890096144       -1.1172960213
 H          2.9796534424        7.0403398028       -0.1399947418
 H          0.2269683435        6.3008964994        2.3234445084
 H          1.1987432299        7.6016045342        1.6295730109
 H         -0.0377730378        6.8082339061        0.6570548070
 H          3.6179931590        4.8109235251        1.7609279115
 H          3.2990824585        6.4837520174        2.2039666796
 H          2.4032464408        5.1928395421        2.9944109553
 H         -0.1898238722        5.1238133933       -0.8489177388
 H         -1.3436126263        3.0402692828       -1.3485892923
 H          1.3501642557        1.1382320712       -1.4458453767
 H          3.7218701729        0.7921496969       -1.8177816708
 H          5.7240893546       -0.6075127991       -1.6113279865
 H          6.7824195246       -2.7726880028       -1.0885019758
 H          6.6031116420       -5.0930660661       -0.2964293206
 H          5.2353267747       -6.9570161765        0.5526762208
 H          2.8103036537       -6.6649226877        0.8922956047
 H          0.8027204910       -5.2316189163        0.7756575572
 H         -0.2446186012       -3.0684666774        0.2820659043
 H         -3.0196423300       -3.0929958175       -1.4781244652
 H         -5.1129629664       -4.4155002669       -1.4776402363
 H         -7.0699782529       -3.6141402077       -0.2033588872
 H         -6.9194972872       -1.5176884807        1.0868337290
 H         -4.8405178131       -0.2141153917        1.0931536952
 H         -2.1833023194        2.4884981816        1.8150595388
 H         -3.7662433050        4.3337888007        2.1310041544
 H         -5.7417782597        4.5440956278        0.6658741383
 H         -6.1235682398        2.8856592744       -1.1237266556
 H         -4.5287486114        1.0407863244       -1.4572324595
 H          0.9708488513        1.0423867823        1.6327137219
 H          2.1387393108        3.1160180056        2.1270882418
  75
  -109.429466921500       0.119903677622857      !
 C          0.4760114440        6.7402424811        1.3626041988
 C          1.6015966974        5.7507124154        1.0280895236
 C          2.5690459889        5.7092402988        2.2139081374
 C          2.3757716992        6.2382936557       -0.2045984712
 C          0.9866176238        4.3942129846        0.7255290164
 C          0.0805970802        4.2725729657       -0.3262352771
 C         -0.5237364160        3.0697242114       -0.6279939666
 C         -0.2314607222        1.9393920605        0.1278939164
 N         -0.8897466921        0.7243620234       -0.1268271949
 C         -0.3360704839       -0.5454554791       -0.2913714550
 C          1.0392693852       -0.8188921767       -0.4803158361
 C          1.9043172144        0.1824306113       -0.9851439257
 C          3.2194425153       -0.0501243905       -1.2285680340
 C          3.8089360214       -1.3277659133       -0.9679901263
 C          5.1603093618       -1.5708881325       -1.1994570390
 C          5.7124871219       -2.8181936469       -0.9628239109
 C          4.9218867451       -3.8686836368       -0.4769981290
 C          5.4609466000       -5.1543793788       -0.2249315914
 C          4.6623634307       -6.1768820270        0.2538386687
 C          3.3233458680       -5.9663970810        0.5020148825
 C          2.7344258357       -4.6952488498        0.2661748297
 C          1.3814256527       -4.4434502961        0.5086712029
 C          0.8290521142       -3.1941232356        0.2711140245
 C          1.5926278551       -2.1437335669       -0.2366137969
 C          2.9738776661       -2.3671980900       -0.4794514975
 C          3.5418309790       -3.6401789261       -0.2309021774
 N         -1.3121099209       -1.4498661638       -0.3422848684
 C         -2.4833129486       -0.8036673063       -0.2372482808
 C         -3.7370733648       -1.5386713405       -0.2296024905
 C         -3.7897060908       -2.7799024254       -0.8654120895
 C         -4.9590412397       -3.5138812573       -0.8700373678
 C         -6.0899232617       -3.0253187844       -0.2346479091
 C         -6.0393841635       -1.8037346960        0.4172605574
 C         -4.8726219147       -1.0632392471        0.4252440039
 C         -2.2531750057        0.5721683612       -0.1033550852
 C         -3.1902016491        1.6746292146        0.0122699439
 C         -3.0460312295        2.6576543887        0.9930653147
 C         -3.9481209210        3.7010396252        1.0710774581
 C         -5.0036549543        3.7829548695        0.1775310983
 C         -5.1601006553        2.8058746794       -0.7935270703
 C         -4.2637336931        1.7595333827       -0.8779964661
 C          0.6773049066        2.0379916509        1.1745224895
 C          1.2777016400        3.2495808189        1.4601230829
 H         -0.2100194962        6.8588266612        0.5285622829
 H         -0.0905634049        6.3882553709        2.2223132648
 H          0.8941470523        7.7157138555        1.6011372712
 H          3.4015275164        5.0377233132        2.0173306214
 H          2.9741429558        6.7045074593        2.3847502141
 H          2.0621577472        5.3939557328        3.1230028036
 H          1.7229569628        6.3507302247       -1.0656377117
 H          2.8363406357        7.2021530228        0.0007764368
 H          3.1598019761        5.5287584469       -0.4606831082
 H         -0.1678794609        5.1317714307       -0.9299650289
 H         -1.2207917923        2.9999932573       -1.4499864250
 H          1.4926234414        1.1468433935       -1.2409835607
 H          3.8428087243        0.7260126739       -1.6481469228
 H          5.7817073397       -0.7682845329       -1.5714373559
 H          6.7617722395       -2.9924044056       -1.1524658541
 H          6.5108080875       -5.3229674221       -0.4142738636
 H          5.0956381280       -7.1501728137        0.4373156027
 H          2.7004196443       -6.7634424010        0.8799903767
 H          0.7573635368       -5.2391707238        0.8893485234
 H         -0.2171873933       -3.0303064216        0.4688095262
 H         -2.8990882264       -3.1463577376       -1.3522155881
 H         -4.9918101390       -4.4712643261       -1.3695881598
 H         -7.0055607380       -3.5984061115       -0.2400983643
 H         -6.9141454601       -1.4274526048        0.9278834691
 H         -4.8363369644       -0.1234200850        0.9556108592
 H         -2.2380107937        2.5909753942        1.7068268737
 H         -3.8278428898        4.4539431510        1.8362476666
 H         -5.7040985394        4.6023012699        0.2397850394
 H         -5.9826774385        2.8631919261       -1.4911529682
 H         -4.3792809225        1.0010643166       -1.6384596337
 H          0.9088592629        1.1617717073        1.7622841295
 H          1.9738617147        3.2856404303        2.2814393966
  75
  -109.429358980900       0.106961242357453      !
 C          2.9301036668        5.4715294465        1.9149710438
 C          1.8398250581        5.5849016567        0.8462347749
 C          2.5055552840        6.0072211850       -0.4713579696
 C          0.8395741623        6.6602186344        1.2928311304
 C          1.0978504526        4.2770880645        0.6248065240
 C          0.0819792744        4.2180630045       -0.3272876820
 C         -0.6059370471        3.0499319888       -0.5836155558
 C         -0.2902068883        1.8929173323        0.1203665218
 N         -0.9775899483        0.6939468904       -0.1291980103
 C         -0.4270293396       -0.5648146060       -0.3657562711
 C          0.9486970446       -0.8098770960       -0.5981031829
 C          1.7701913014        0.2083399995       -1.1392460153
 C          3.0998320719        0.0321782659       -1.3493232890
 C          3.7470172706       -1.1980944501       -1.0089581643
 C          5.1178898770       -1.3745067245       -1.1757453313
 C          5.7258203217       -2.5797443686       -0.8667560433
 C          4.9717279349       -3.6560305615       -0.3801100918
 C          5.5672235563       -4.9011736082       -0.0598055544
 C          4.8033694000       -5.9501452229        0.4183060608
 C          3.4443816660       -5.8076246407        0.5962401519
 C          2.7984531882       -4.5797554870        0.2891087982
 C          1.4227263550       -4.3986540810        0.4554481299
 C          0.8167348208       -3.1865311508        0.1613132881
 C          1.5506076031       -2.1063043002       -0.3271298889
 C          2.9492598724       -2.2639902854       -0.5144903908
 C          3.5713216231       -3.4970563544       -0.2036614370
 N         -1.3983692513       -1.4717994943       -0.4182320901
 C         -2.5681358318       -0.8345646417       -0.2466624398
 C         -3.8204107417       -1.5727756585       -0.2468656778
 C         -3.8956095730       -2.7616503429       -0.9734808737
 C         -5.0666294508       -3.4926676310       -0.9992173589
 C         -6.1764995016       -3.0535512875       -0.2948905231
 C         -6.1024818077       -1.8861751266        0.4478229712
 C         -4.9339297217       -1.1491147072        0.4773978068
 C         -2.3378303605        0.5354067661       -0.0610089492
 C         -3.2688099754        1.6265108725        0.1600682654
 C         -3.0638506429        2.5601338521        1.1777472203
 C         -3.9624983344        3.5918901538        1.3680652677
 C         -5.0742634634        3.7117977452        0.5502621880
 C         -5.2889223496        2.7856790449       -0.4589114381
 C         -4.3967677046        1.7506397530       -0.6548229192
 C          0.7050837190        1.9370286509        1.0893196509
 C          1.3889434479        3.1134830630        1.3287609932
 H          2.5076434902        5.2002451630        2.8796925619
 H          3.6792662938        4.7353998375        1.6328491623
 H          3.4288772285        6.4321707897        2.0261545120
 H          1.7701303075        6.1725621710       -1.2536345752
 H          3.0646082083        6.9295570766       -0.3295936793
 H          3.1938060754        5.2346785701       -0.8077488842
 H          0.3520514886        6.3585957936        2.2175740992
 H          1.3555474415        7.6021177034        1.4661240140
 H          0.0723137135        6.8256305636        0.5416556568
 H         -0.1806017490        5.0974829449       -0.8948956624
 H         -1.3790272997        3.0258151264       -1.3374270609
 H          1.3134458819        1.1364363363       -1.4484058959
 H          3.6918113700        0.8172000347       -1.7966332284
 H          5.7105273640       -0.5531098600       -1.5535410640
 H          6.7908134859       -2.7008792749       -1.0027627451
 H          6.6322209650       -5.0172819401       -0.1966577117
 H          5.2797851298       -6.8907179830        0.6568549606
 H          2.8488293297       -6.6258805830        0.9728915397
 H          0.8240115330       -5.2190527897        0.8242299882
 H         -0.2456368411       -3.0726721787        0.3018941865
 H         -3.0213672936       -3.0907335418       -1.5137245313
 H         -5.1172244930       -4.4081500815       -1.5706315794
 H         -7.0943306917       -3.6226761840       -0.3182717826
 H         -6.9606321576       -1.5498712049        1.0117062076
 H         -4.8793487184       -0.2512125127        1.0746986740
 H         -2.2106764189        2.4622805593        1.8331026511
 H         -3.7956572648        4.3046727295        2.1623770498
 H         -5.7729630619        4.5211343730        0.7006899983
 H         -6.1547296149        2.8739921838       -1.0985487861
 H         -4.5584167020        1.0321085472       -1.4450177909
 H          0.9457546641        1.0435048406        1.6464433369
 H          2.1566007468        3.1051516917        2.0844701198
  75
  -109.429172932200       8.784648243748072E-002 !
 C          2.3679263038        5.1736068726        3.1441732032
 C          1.8822438132        5.3223140820        1.6949647244
 C          3.1060906486        5.5649441210        0.8075126994
 C          0.9520838671        6.5377526401        1.5780059882
 C          1.1133077020        4.0718196173        1.3012665864
 C          1.4672210815        3.2782718245        0.2153595096
 C          0.7586715922        2.1357537909       -0.1018937177
 C         -0.3262585073        1.7475209872        0.6754258661
 N         -1.0250044534        0.5711264955        0.3604977703
 C         -0.4748378587       -0.6794988969        0.0831964562
 C          0.8814276219       -1.0211072163        0.3119119997
 C          1.6172321778       -0.3589767950        1.3237044081
 C          2.9278080384       -0.6254121220        1.5581746285
 C          3.6427697219       -1.5788512896        0.7652794795
 C          4.9985594721       -1.8255228980        0.9626853325
 C          5.6721902869       -2.7652232349        0.1999839464
 C          5.0017355561       -3.4950712396       -0.7906586182
 C          5.6666490441       -4.4604092879       -1.5870479295
 C          4.9842452723       -5.1689675247       -2.5590098409
 C          3.6406872731       -4.9525717411       -2.7756686207
 C          2.9269369506       -3.9966801717       -2.0031508066
 C          1.5640442519       -3.7519644886       -2.1930230106
 C          0.8928307391       -2.8013892935       -1.4384605082
 C          1.5462960344       -2.0639319159       -0.4521009167
 C          2.9282654291       -2.2998452355       -0.2281024124
 C          3.6168841017       -3.2626414313       -1.0042791180
 N         -1.4282539355       -1.5025272658       -0.3410588387
 C         -2.5912076530       -0.8286026219       -0.3225293208
 C         -3.8263865006       -1.4626689832       -0.7519048610
 C         -3.9424761902       -2.8491375170       -0.6448086649
 C         -5.0994935706       -3.4870894326       -1.0457879917
 C         -6.1543532450       -2.7538012893       -1.5658215023
 C         -6.0382143672       -1.3792985967       -1.6963652399
 C         -4.8832744263       -0.7343249061       -1.2970340547
 C         -2.3706562153        0.4835070523        0.1169694874
 C         -3.3019876867        1.5810225994        0.3086806611
 C         -4.4776970557        1.3714610319        1.0329857873
 C         -5.3748348575        2.4038926469        1.2204306318
 C         -5.1173964184        3.6578712205        0.6882669018
 C         -3.9559904190        3.8728346184       -0.0355943124
 C         -3.0508565749        2.8461351700       -0.2242666373
 C         -0.7096031092        2.5400121554        1.7517667124
 C          0.0039574650        3.6830528983        2.0497105857
 H          1.5355354834        5.1004404625        3.8384220531
 H          2.9778401036        4.2781679541        3.2455427462
 H          2.9697414951        6.0347268620        3.4265946184
 H          2.8165046084        5.7206008947       -0.2290688692
 H          3.6270063841        6.4582141919        1.1459945434
 H          3.8001856336        4.7294785099        0.8632451381
 H          0.0858547564        6.4370903111        2.2263807538
 H          1.4845890918        7.4445457194        1.8567694047
 H          0.6007913912        6.6446260089        0.5536635422
 H          2.3068736460        3.5390588959       -0.4068362286
 H          1.0497676459        1.5321800775       -0.9490137401
 H          1.1041500102        0.3400238107        1.9673640694
 H          3.4519560741       -0.1302229684        2.3624110852
 H          5.5277933709       -1.2698621544        1.7241442010
 H          6.7249143894       -2.9437709309        0.3648541217
 H          6.7196092327       -4.6337017337       -1.4207940351
 H          5.5125247201       -5.9001656980       -3.1548445980
 H          3.1089897306       -5.5044300017       -3.5364985187
 H          1.0280854227       -4.3122585203       -2.9455461851
 H         -0.1578793065       -2.6293930639       -1.6062570481
 H         -3.1109432886       -3.4053347845       -0.2402808264
 H         -5.1823874777       -4.5602555266       -0.9529471201
 H         -7.0612879354       -3.2519049430       -1.8760469502
 H         -6.8516526269       -0.8059638388       -2.1172178836
 H         -4.7935267843        0.3340281498       -1.4244710080
 H         -4.6745772670        0.3936334627        1.4477476462
 H         -6.2792178636        2.2311164483        1.7850365561
 H         -5.8212164489        4.4634627046        0.8349848565
 H         -3.7541694016        4.8462856882       -0.4579567697
 H         -2.1542543801        3.0170276798       -0.8022957204
 H         -1.5540668725        2.2498606962        2.3593735631
 H         -0.3139169716        4.2747911109        2.8942785270
