54
 energy: -78.037436525150 gnorm: 0.000062259534 xtb: 6.7.1 (edcfbbe)
N            7.26436338481700       -3.54628112571009       -2.15420273320638
C            6.62010200684545       -2.65974567229647       -1.81000980561714
C            5.83083053917345       -1.57066113830462       -1.38512557749957
C            6.42072584042367       -0.50243921603563       -0.70471218442218
C            5.64180893175681        0.55945405095398       -0.29457444819109
C            4.27128479786934        0.58429911478416       -0.54453820771581
C            3.43641797779992        1.74030605024899       -0.07971794958553
C            3.34398745400034        1.81944004284193        1.44988283673461
C            2.64982075263759        0.59924765466580        2.06648177719128
C            1.24197417555036        0.41832144566600        1.57085828141359
C            0.27643295013133        1.39600127170584        1.78940870988159
C           -1.01349796402703        1.24415922122278        1.32281722454294
C           -1.37759974097859        0.09936365714325        0.61430477852369
N           -2.68376720510053       -0.05528168367578        0.12891624169129
C           -3.36447833210954        1.04601994091139       -0.40105104599928
C           -2.68024667241932        2.01307859222383       -1.13852837620391
C           -3.35379316195732        3.10303862761014       -1.65498960735044
C           -4.71758387924455        3.24508854184116       -1.45567507624395
C           -5.40357364330770        2.28595863532019       -0.72780000995222
C           -4.73679730543475        1.19772837005698       -0.19882163881501
C           -3.29965916719813       -1.31087770355106        0.17923175707278
C           -3.08032542683262       -2.16304021868017        1.26217562429592
C           -3.68320387523413       -3.40534169099997        1.30519594065987
C           -4.51939495361071       -3.81650771413336        0.27963066160561
C           -4.74357789985131       -2.97327912096243       -0.79688491155967
C           -4.13785309907287       -1.73284837727598       -0.85340907795783
C           -0.41902102513710       -0.88986962126550        0.40317723252615
C            0.86694577353449       -0.72857331915186        0.88204858411570
C            3.69672386558965       -0.48206790391216       -1.22939378269555
C            4.45987955485958       -1.55378893114488       -1.64802470233042
H            7.48325476217357       -0.51675363251298       -0.50922437495072
H            6.10487365141975        1.38654178951185        0.22327729257893
H            2.42982823171430        1.65657396944524       -0.49264088168858
H            3.88042456050431        2.66980837687391       -0.44592446123176
H            4.34647190423799        1.90233886123934        1.87379699039328
H            2.79328495898384        2.72346638059431        1.71456152696303
H            2.63470948376137        0.72651537826795        3.15298982059344
H            3.23098822035446       -0.29774971847545        1.84287408675638
H            0.53214964309610        2.28674661409314        2.34490356521497
H           -1.75219459229310        2.01078177984833        1.50752688049273
H           -1.61881427263797        1.90093497538786       -1.30537198181225
H           -2.81065641722913        3.84267048600615       -2.22547018178491
H           -5.24172809973178        4.09595556808302       -1.86445214202859
H           -6.46615899341566        2.39023549583090       -0.56168629220286
H           -5.27379405217248        0.45785878943272        0.37701267157055
H           -2.43621435438676       -1.84264255383526        2.06834253407592
H           -3.50561723190153       -4.05348972385959        2.15128957657282
H           -4.99203581301242       -4.78652276190351        0.31861288261837
H           -5.38897655228647       -3.28701160440578       -1.60465902487322
H           -4.30763683497876       -1.08260963588100       -1.69945205500644
H           -0.68841202555322       -1.78505023993258       -0.13893522974764
H            1.59463078110253       -1.50955498754349        0.71169674968337
H            2.63695106116878       -0.47053209489632       -1.43706423317033
H            4.00774332761890       -2.37941329144440       -2.17867223390805
