54
 energy: -77.937018865815 gnorm: 0.000029192357 xtb: 6.7.1 (edcfbbe)
N           -0.74498539065991        1.62586403590136       -3.13757987992250
C            0.25780910899081        1.34420021404217       -2.61827771605460
C            1.44262566092651        0.99266183568446       -2.00145506224155
C            2.09672743209244       -0.22660253061492       -2.34385896244553
C            3.25836656005169       -0.58108148995066       -1.72714817571635
C            3.81788199644859        0.20659048232162       -0.69395916681572
C            5.13054049643257       -0.15357225941913       -0.07314285034520
C            4.98313671638289       -0.42000168149378        1.42814042355608
C            3.88853930290720       -1.46647941068515        1.64627139059446
C            2.54988187223174       -1.00750468330550        1.16421877139236
C            1.75624101684678       -1.81602768721620        0.31152311966574
C            0.45337816532407       -1.51425452385466        0.04571404704727
C           -0.17904630818755       -0.40428287505679        0.66179649456433
N           -1.52425767208394       -0.17337248473925        0.48791848678121
C           -2.38363558004185       -1.22799654269893        0.14277434595217
C           -3.37930189973232       -1.02951684665234       -0.81746370857546
C           -4.22901032082410       -2.06409094802282       -1.15370767627796
C           -4.10411414666633       -3.30345334058784       -0.54112330116973
C           -3.11964057064714       -3.50234339644747        0.41633549111518
C           -2.26277888401785       -2.47611032090813        0.76045864629922
C           -2.09062421473544        1.08758979220355        0.69220611484890
C           -3.35426620941278        1.19543603679994        1.28410877544353
C           -3.91453027762494        2.43762020080034        1.49886463318049
C           -3.23221841961054        3.58953010623374        1.13251730342652
C           -1.98046322701801        3.48741319878298        0.54264624524253
C           -1.40900299301333        2.25063479738124        0.32464261028898
C            0.59612317279186        0.38960328088444        1.54831697676019
C            1.90215247304468        0.08902962467541        1.79098080961798
C            3.22642715478661        1.47022520494689       -0.43911987975662
C            2.07754427161113        1.85393654365400       -1.05844777434792
H            1.66011342533677       -0.84647448723239       -3.11515339085463
H            3.75779786627192       -1.49659549134942       -2.01397645318005
H            5.84681284226111        0.66200033803886       -0.21646315032841
H            5.53241057931339       -1.04514753378681       -0.55938813285865
H            5.92919358204185       -0.77506787131358        1.84160714957332
H            4.71655425942516        0.50558488454634        1.93921663451884
H            3.82172046384105       -1.67899918892617        2.71883628353703
H            4.16580088495905       -2.39068889256477        1.13580897031163
H            2.20422827363429       -2.68247412635732       -0.15130256864022
H           -0.11104101208610       -2.11723002066096       -0.64957143967775
H           -3.46146622985722       -0.06888292601022       -1.30360271552449
H           -4.98975565246423       -1.90495614146115       -1.90309638234251
H           -4.77138525304354       -4.10868585313901       -0.80758615132860
H           -3.02522537062354       -4.46101790516286        0.90404572223505
H           -1.50875351650755       -2.62006219281865        1.52011912880048
H           -3.87956994919083        0.30090673216411        1.58395183628462
H           -4.88755445841921        2.51039386845081        1.96111161336143
H           -3.67428420947028        4.55941901865032        1.30125443819209
H           -1.45039430306782        4.37809227927200        0.23947247148899
H           -0.45481328756800        2.16372511704563       -0.16833350085755
H            0.11947945449539        1.20154907033089        2.07645631528340
H            2.45431515695580        0.68072570087899        2.50569489701000
H            3.70459996017857        2.13827898052439        0.26360958497807
H            1.64231103751750        2.82550284356535       -0.86442843695625
