54
 energy: -77.937302762418 gnorm: 0.000079004037 xtb: 6.7.1 (edcfbbe)
N           -1.15701724913284        0.85667592192113       -2.79257573056868
C           -0.05725670019666        0.76181194043190       -2.42033659372405
C            1.23366891633415        0.61822113253995       -1.95635633478047
C            1.94830571084785       -0.59656625568679       -2.18202323059347
C            3.18606431300105       -0.77676264467225       -1.64191911413696
C            3.77525404293234        0.19954307807401       -0.80816710620118
C            5.12129183300869       -0.01228405830483       -0.19341455533332
C            5.04006507384402       -0.01189117567033        1.33758425167304
C            4.01850549831282       -1.05259498693911        1.80563910487890
C            2.62958462904530       -0.74724906047358        1.34593968844432
C            1.85203332052866       -1.70525668503536        0.65340281712876
C            0.54151557828895       -1.47854980136624        0.34799701107268
C           -0.11277057698738       -0.29178076019290        0.76673585501402
N           -1.45311554068175       -0.11102405554300        0.52520247214562
C           -2.26385674424084       -1.22743809617898        0.23181361218295
C           -3.09407203012240       -1.19963139668644       -0.88807224559360
C           -3.90018739124108       -2.28478252426095       -1.17130748771571
C           -3.88960179024477       -3.40020203555182       -0.34547973235708
C           -3.06277672205151       -3.42852879659752        0.76756584098664
C           -2.25019078525948       -2.35004806401092        1.06022388770334
C           -2.08434735817737        1.13075159526533        0.57597168961074
C           -3.41287423062421        1.20926682496452        1.01570519457887
C           -4.05504812091727        2.42788900934034        1.07879430502308
C           -3.39478032183218        3.59168618765112        0.71024974513674
C           -2.08019898222145        3.52087604706883        0.27113831285985
C           -1.42690910339730        2.30807216422613        0.20555220199078
C            0.63687917498744        0.62926121713916        1.54807539028327
C            1.95338735815901        0.40316958032791        1.81939467969481
C            3.13870363812987        1.46271862969765       -0.72627123222316
C            1.91332237239536        1.67520574761459       -1.27662104413548
H            1.48731684928834       -1.35962440326817       -2.79437060981627
H            3.72176012025633       -1.69806937518307       -1.82703822761148
H            5.80505431433129        0.78439170541059       -0.50450115137896
H            5.53455670596676       -0.96449660912227       -0.53308848826576
H            6.02056617283891       -0.23781007284022        1.76203354683307
H            4.74043920560250        0.97752064289388        1.68475688603708
H            4.03044671153385       -1.07436862037221        2.90066622829230
H            4.31678488429480       -2.03862268331591        1.44467506698415
H            2.31744124981174       -2.62638556998551        0.33623056419293
H           -0.00816311588150       -2.20093257544216       -0.23577265117974
H           -3.06598798999159       -0.33699565249541       -1.53765688985558
H           -4.53339688915357       -2.26304412382320       -2.04539032252316
H           -4.52167357649086       -4.24556074837080       -0.57104361801758
H           -3.05508794112429       -4.29279730975180        1.41470868275372
H           -1.61423555271645       -2.35782359392292        1.93332781818813
H           -3.92707598251547        0.30971955185670        1.31904801821774
H           -5.07737602860790        2.47303573132925        1.42327238786123
H           -3.90071738977093        4.54358866346920        0.75866484463205
H           -1.56323559080063        4.41892570389825       -0.03358371775679
H           -0.42123291756469        2.25012622329690       -0.17397850998636
H            0.13703762565054        1.48605464895673        1.97314476910744
H            2.49104610478505        1.10599047454830        2.43861510897021
H            3.64207476830950        2.26923406024019       -0.21101517843106
H            1.44546562781854        2.64951502451140       -1.22510614345588
