  64
        -97.00369711
 C          8.6024937096        0.0018677432       -0.0347201746
 C          7.8974724648        0.6505427363       -1.0362412241
 C          6.5164656483        0.6582578476       -1.0237328080
 C          5.8079948446        0.0039187269       -0.0123568462
 C          4.3460040282        0.0024470901       -0.0010969305
 C          3.6396201998       -1.2367175766       -0.0065292277
 C          4.3070214874       -2.4626585818       -0.0964289400
 C          3.6224012632       -3.6716190259       -0.0058947198
 C          2.2580640102       -3.6725855649        0.1881987150
 C          1.5620710747       -2.4659324026        0.2238229719
 C          2.2143365270       -1.2403981516        0.0662250086
 C          1.4980800543       -0.0028692285        0.0212596760
 C          0.0454284088       -0.0070972521        0.0227197805
 C         -0.6766759635       -0.7750576767       -0.9020819248
 C         -2.0528488558       -0.7675129489       -0.9167648098
 C         -2.7637023722       -0.0083927582        0.0137100584
 N         -4.1613068506       -0.0042359543        0.0055351415
 C         -4.9656701875        1.1180763058        0.0460903206
 C         -4.6123223914        2.4601031825        0.0513513233
 C         -5.6294861858        3.3954477508        0.0647834587
 C         -6.9690866179        3.0138051452        0.0628382561
 C         -7.3271780638        1.6804135019        0.0295083049
 C         -6.3228578163        0.7223489680        0.0158773345
 C         -6.3281705615       -0.7130821216       -0.0414628769
 C         -7.3399216981       -1.6627433115       -0.0736924538
 C         -6.9922545166       -2.9989039518       -0.1034128441
 C         -5.6560365789       -3.3915603619       -0.0832442476
 C         -4.6315813880       -2.4647354610       -0.0507287671
 C         -4.9739091952       -1.1199005776       -0.0491288223
 C         -2.0594254001        0.7484237802        0.9510198188
 C         -0.6830809792        0.7571423301        0.9454747282
 C          2.2086260843        1.2377193625       -0.0316997104
 C          1.5497813299        2.4614129998       -0.1756463405
 C          2.2421901570        3.6703568769       -0.1511075006
 C          3.6099893213        3.6738569703        0.0169856275
 C          4.3000450296        2.4670417527        0.0937992437
 C          3.6351117573        1.2389192221        0.0165181879
 C          6.5319212630       -0.6510456185        0.9878020502
 C          7.9128614772       -0.6452263036        0.9783621240
 H          9.6822856644        0.0004981199       -0.0436627861
 H          8.4285654053        1.1506463523       -1.8333132101
 H          5.9692753974        1.1483490826       -1.8163554792
 H          5.3762827402       -2.4742417547       -0.2417528404
 H          4.1689878160       -4.6003819415       -0.0726115963
 H          1.7193959980       -4.6015713461        0.3014827891
 H          0.4953545980       -2.4838572425        0.3872201558
 H         -0.1372759579       -1.3407709713       -1.6475638852
 H         -2.5915331795       -1.3273957599       -1.6667560488
 H         -3.5778625759        2.7677411818        0.0318691687
 H         -5.3797151074        4.4460769294        0.0726759777
 H         -7.7347750503        3.7751288579        0.0764381515
 H         -8.3651695736        1.3845444192        0.0091296190
 H         -8.3756267246       -1.3583081954       -0.0707960886
 H         -7.7638208291       -3.7538018339       -0.1320530517
 H         -5.4148350655       -4.4442772309       -0.0894074539
 H         -3.6001776058       -2.7809835529       -0.0148921985
 H         -2.6036251400        1.3072286523        1.6979051369
 H         -0.1490716224        1.3219697812        1.6955238274
 H          0.4802863521        2.4764924423       -0.3190880362
 H          1.6982279876        4.5976431092       -0.2528467266
 H          4.1546471652        4.6044520655        0.0734110059
 H          5.3719108917        2.4819460870        0.2183699278
 H          5.9967224787       -1.1406485786        1.7888714334
 H          8.4559978826       -1.1460344875        1.7668056002
