  168
       -259.32298062
 C          1.2215413947        8.2616148753       -3.1541370133
 C         -0.0228145379        7.8208864771       -3.5747487280
 C         -0.4342200017        6.5292095003       -3.3108315756
 C          0.3972719101        5.6560673287       -2.6091009215
 N         -0.0283523184        4.3553008710       -2.3291142526
 C          0.8855687792        3.3026376933       -2.2428645541
 C          0.7329437777        2.3168779554       -1.2652365185
 C          1.6399698741        1.2854858918       -1.1623380592
 C          2.7361595088        1.2005857128       -2.0216082972
 C          3.7425270020        0.1522994468       -1.8253318825
 C          3.3847133957       -1.1356300183       -1.4281680109
 C          4.3450343932       -2.0735893451       -1.1087967098
 C          5.6951819551       -1.7399506675       -1.1577204523
 C          6.7010760687       -2.6622437370       -0.6424563401
 N          6.8426179496       -3.9222620872       -0.9561039376
 C          7.9000274492       -4.3682134226       -0.2215287880
 C          8.4771120639       -5.6683214411       -0.2169592841
 C          7.9815692371       -6.6846728842       -1.0407897873
 C          8.5640808573       -7.9271969202       -1.0367702258
 C          9.6570436908       -8.1678837694       -0.2064039105
 C         10.1501664863       -7.1776458723        0.6105837193
 C          9.5784489657       -5.8963398595        0.6408763099
 C         10.0611272030       -4.8401065829        1.5136814111
 C         11.1130471962       -5.0489595434        2.4171307744
 C         11.5494297164       -4.0618986211        3.2689023341
 C         10.9381207135       -2.8117984562        3.2644895229
 C          9.9089190085       -2.5631286894        2.3906430455
 C          9.4648150474       -3.5500385124        1.4995071692
 C          8.4041436262       -3.3413448584        0.5757668198
 N          7.6286785258       -2.2453519672        0.2886531788
 C          7.6341185838       -0.9338856017        0.7995402996
 C          8.6937905312       -0.0652757838        0.5570785183
 C          8.5914604266        1.2647501705        0.9081751364
 C          7.4241320495        1.7557653434        1.4980661938
 N          7.2721773391        3.1158263518        1.7613826934
 C          6.0278902775        3.7253757919        1.5565435366
 C          5.6111121417        4.7786486656        2.3701352662
 C          4.3855251467        5.3800339316        2.1570637078
 C          3.5509940982        4.9378390706        1.1434354691
 C          3.9565328337        3.8871093426        0.3366634988
 C          5.1855527045        3.2887751542        0.5335174075
 C          8.3746933292        3.8752471036        2.1746015529
 C          9.3016170189        3.3344414002        3.0650605931
 C         10.3924250975        4.0780695715        3.4714151965
 C         10.5722506552        5.3702968619        3.0057653603
 C          9.6525792071        5.9132064703        2.1235112815
 C          8.5632454693        5.1739564059        1.7044190862
 C          6.3920338004        0.8634354733        1.7954265047
 C          6.4945551622       -0.4643469861        1.4456704127
 C          6.0611355816       -0.4816761120       -1.6322651808
 C          5.0983109110        0.4453864591       -1.9680960779
 C          2.8748632134        2.1790068041       -3.0061719669
 C          1.9657080824        3.2100910325       -3.1214189673
 C         -1.3706477172        4.0918791840       -2.0389710207
 C         -2.1389690797        4.9615223598       -1.2656920687
 C         -3.4233807033        4.6172716011       -0.8976360255
 C         -3.9858925601        3.4015430808       -1.2871200950
 C         -5.2812736905        2.9397634428       -0.7772306635
 C         -5.6948032466        3.2635771186        0.5157472446
 C         -6.8383355580        2.7124795309        1.0562567023
 C         -7.5942251907        1.8021845025        0.3233520433
 C         -8.7134507291        1.1064761939        0.9463472722
 N         -9.6920190559        1.6535519428        1.6176258113
 C        -10.4900172213        0.6224229831        2.0113626329
 C        -11.7008002063        0.6874184543        2.7551794721
 C        -12.2337087900        1.9135985403        3.1669368143
 C        -13.4116671313        1.9571346496        3.8696125104
 C        -14.0754845813        0.7684508353        4.1667446419
 C        -13.5588966645       -0.4429193722        3.7704771049
 C        -12.3534694618       -0.5304426433        3.0572350475
 C        -11.7706729413       -1.7970946544        2.6492777264
 C        -12.3614123873       -3.0242761873        2.9830373112
 C        -11.7980837887       -4.2262621090        2.6252288525
 C        -10.5996240364       -4.2550307071        1.9188208904
 C         -9.9901766433       -3.0759132197        1.5680872920
 C        -10.5582499708       -1.8402384595        1.9085740319
 C         -9.9641103471       -0.5924006354        1.5732397883
 N         -8.8253726316       -0.2647225983        0.8785414699
 C         -7.8462260394       -1.0785787838        0.2763980291
 C         -6.5581009200       -1.0824680084        0.8006190347
 C         -5.5527262844       -1.7847145357        0.1726295870
 C         -5.8073715352       -2.4845532093       -1.0088328825
 N         -4.7829574282       -3.1480607369       -1.6782704639
 C         -3.4808746742       -2.6353468951       -1.6859677049
 C         -2.3856368515       -3.4982404257       -1.7355754621
 C         -1.0995496447       -2.9947336090       -1.7728137938
 C         -0.8820946789       -1.6276852252       -1.7408391274
 C         -1.9633711267       -0.7657092107       -1.6700785970
 C         -3.2532663281       -1.2589232959       -1.6548057427
 C         -5.0679221606       -4.3300016727       -2.3810460668
 C         -5.9150023354       -5.2883329683       -1.8270377612
 C         -6.1991189502       -6.4492317839       -2.5200792127
 C         -5.6392282202       -6.6754198648       -3.7668035598
 C         -4.7933956894       -5.7277619455       -4.3195782132
 C         -4.5102960313       -4.5600588407       -3.6373647851
 C         -7.1108893739       -2.4977078288       -1.5142110734
 C         -8.1190259505       -1.8037501697       -0.8793630214
 C         -7.2271560659        1.5280927104       -0.9925768005
 C         -6.0935848506        2.0946169257       -1.5341077497
 C         -3.2366049220        2.5751360982       -2.1258725001
 C         -1.9541950078        2.9110667491       -2.4976222667
 C          1.6482682088        6.1051700716       -2.1862958723
 C          2.0531455823        7.3966454464       -2.4622521884
 H          1.5400059069        9.2710542958       -3.3640638555
 H         -0.6764864553        8.4856936533       -4.1196813470
 H         -1.4011148126        6.1850017040       -3.6478395085
 H         -0.0928903360        2.3797398257       -0.5725498586
 H          1.5240181191        0.5582926440       -0.3727825743
 H          2.3412943273       -1.4048877865       -1.3636167471
 H          4.0613958280       -3.0640179149       -0.7865242485
 H          7.1384170074       -6.4539508538       -1.6733412232
 H          8.1846767342       -8.7137263685       -1.6721085906
 H         10.1225589506       -9.1428614168       -0.2032625630
 H         10.9984989007       -7.4095057135        1.2348536340
 H         11.5997021769       -6.0098498341        2.4614963606
 H         12.3629801062       -4.2607682547        3.9508086156
 H         11.2691986619       -2.0424601833        3.9463806428
 H          9.4233231645       -1.5998909065        2.3961254947
 H          9.5828366170       -0.4311256337        0.0641525459
 H          9.4042471985        1.9418045175        0.6928669384
 H          6.2516853030        5.1184097402        3.1706266387
 H          4.0757260206        6.1941425204        2.7954326733
 H          2.5913445229        5.4072008008        0.9861300088
 H          3.3171281210        3.5262844467       -0.4541377787
 H          5.4952269679        2.4748843139       -0.1032799416
 H          9.1556443306        2.3305527363        3.4368203664
 H         11.1013921050        3.6482165416        4.1633140736
 H         11.4230975660        5.9501953880        3.3285005990
 H          9.7881091114        6.9177554811        1.7511659172
 H          7.8524893372        5.5948813240        1.0084222506
 H          5.5001938184        1.2268515130        2.2821426281
 H          5.6841988434       -1.1461677993        1.6545626620
 H          7.1056027029       -0.2258484385       -1.7287979098
 H          5.3993380627        1.4254202054       -2.3082213547
 H          3.6955980314        2.1197074853       -3.7054508055
 H          2.0866825418        3.9562370790       -3.8928082185
 H         -1.7123292557        5.8965779051       -0.9336070114
 H         -3.9966686453        5.3031813598       -0.2922648128
 H         -5.0890277296        3.9217606881        1.1204912631
 H         -7.1413219577        2.9525366145        2.0640590355
 H        -11.6909970141        2.8099986837        2.9098853683
 H        -13.8263336714        2.9018226527        4.1886960907
 H        -15.0062782640        0.7975602227        4.7145719670
 H        -14.1089867763       -1.3360678105        4.0211348086
 H        -13.2821510744       -3.0416853131        3.5433863763
 H        -12.2826844599       -5.1511290202        2.9012894277
 H        -10.1492246403       -5.1994614998        1.6508687032
 H         -9.0538960599       -3.0971019267        1.0333303881
 H         -6.3514169755       -0.5282399089        1.7037980388
 H         -4.5578670294       -1.7886606382        0.5901453458
 H         -2.5498468740       -4.5654509420       -1.7464482021
 H         -0.2633208433       -3.6766259376       -1.8197641520
 H          0.1194015973       -1.2280498521       -1.7768589804
 H         -1.7981873812        0.2993558968       -1.6329419186
 H         -4.0931211934       -0.5814251609       -1.6163589648
 H         -6.3439310794       -5.1154558240       -0.8505795439
 H         -6.8550489878       -7.1851171892       -2.0792914148
 H         -5.8604590348       -7.5846833061       -4.3041589215
 H         -4.3566591403       -5.8938806863       -5.2930572577
 H         -3.8565776785       -3.8176554659       -4.0713658843
 H         -7.3230508913       -3.0399896452       -2.4230940372
 H         -9.1198984375       -1.8043385190       -1.2862241252
 H         -7.8348996863        0.8697939710       -1.5950857653
 H         -5.8366318956        1.8801066558       -2.5609170971
 H         -3.6523143965        1.6409423995       -2.4677673081
 H         -1.3798032639        2.2502890243       -3.1305433019
 H          2.2977074070        5.4416615945       -1.6365533322
 H          3.0238412635        7.7297077388       -2.1252712422
