168
 energy: -259.344481890665 gnorm: 0.000054674891 xtb: 6.7.1 (edcfbbe)
C            0.48649246706369        8.42872310193824       -2.96729229216381
C           -0.58733715537103        7.73559851000416       -3.50482158858046
C           -0.81325373304877        6.41802171999630       -3.15716237813157
C            0.03902026058389        5.77593494620815       -2.25739717224427
N           -0.19007877484661        4.44173151153334       -1.89783191557049
C            0.88717369335030        3.57475429834318       -1.72341268250663
C            0.84556504303269        2.57885698308659       -0.74040793377552
C            1.89692195187495        1.70543336672469       -0.58731100210696
C            3.03722343884586        1.79486626223285       -1.39288524469453
C            4.15049233216287        0.86434453564885       -1.21050960375879
C            3.91867265527773       -0.48070681446746       -0.90746548618006
C            4.96590822369528       -1.34847655595205       -0.69070310968794
C            6.28673309800762       -0.89782339219014       -0.74457158476103
C            7.35880648496078       -1.83078836166958       -0.44342780088292
N            7.36827287115353       -3.08596340562707       -0.82406343568774
C            8.52719816153095       -3.61092557983318       -0.34344684139201
C            9.02236578385309       -4.93375227679325       -0.51615694137960
C            8.31595937094434       -5.88154838557583       -1.26530506281206
C            8.82190384910630       -7.14518866124242       -1.44292677367880
C           10.04948305461086       -7.47624761932930       -0.87174535812918
C           10.75034624227179       -6.55464857299985       -0.12907961395730
C           10.26318665818823       -5.25498179481564        0.08201038956773
C           10.96552050988855       -4.26957567396643        0.88630986803740
C           12.16258244423188       -4.57766248798039        1.54928997798068
C           12.81338966295522       -3.66422684323927        2.34475025657743
C           12.28090161954011       -2.39102472508176        2.52580572430440
C           11.11503723144260       -2.04599147009427        1.88812125465191
C           10.44815996305086       -2.95454161877970        1.05256999363180
C            9.23804187851443       -2.64638405429557        0.37072696527737
N            8.47964277580094       -1.50063371492879        0.28826776485858
C            8.69554943433726       -0.22375423342627        0.84617900509083
C            9.76729657879747        0.56529660629780        0.43677685976681
C            9.90175818606379        1.85179725195325        0.91532490103173
C            8.96206317423876        2.38098081070867        1.80433748901982
N            9.05764664602968        3.70021057148006        2.24336702555963
C            7.89031297961166        4.46215576070224        2.40259233243091
C            7.77939542674693        5.38110693536624        3.44510724635120
C            6.62753785427575        6.13120237346926        3.59013677047874
C            5.56917644040662        5.97200696157392        2.71001528135094
C            5.67322887083512        5.05709047925601        1.67448964376393
C            6.82477227556233        4.31070575565475        1.51515905951575
C           10.31274223495227        4.27338153756134        2.49092515077927
C           11.32651011150764        3.51779389268431        3.07975103929451
C           12.56403410512579        4.08227341689273        3.32261352868239
C           12.80807463925212        5.40587368302861        2.99300097086921
C           11.80235819260421        6.16211892576343        2.41278941958627
C           10.56444009877676        5.60363934722155        2.15721975525506
C            7.90729127713329        1.57077368782955        2.23227166705873
C            7.77438248966267        0.28419335636023        1.75680080690460
C            6.52502793180953        0.43318911297791       -1.09214406801113
C            5.47446099143544        1.29400986416770       -1.32497323087356
C            3.07955826611591        2.80388591608378       -2.36047502278615
C            2.02585366226462        3.67322689872178       -2.53093102115424
C           -1.48544893173817        3.98632513835459       -1.70145514617726
C           -2.47767870005570        4.82152731468746       -1.15485857810007
C           -3.73672739106833        4.34974017899241       -0.91065712144781
C           -4.11539009422696        3.01275912259585       -1.20787702350908
C           -5.40984618555222        2.49897615832815       -0.90702478496987
C           -6.31812789625586        3.17048810258696       -0.03588380664163
C           -7.50907295995560        2.62550707242474        0.32317276326124
C           -7.91533268290100        1.33845141356328       -0.13669198586833
C           -9.12168289167590        0.80665800229092        0.35476352217339
N          -10.04759765341985        1.56095854626006        0.96127553370595
C          -11.07261945097329        0.75168160189890        1.24270406903403
C          -12.31216257246237        1.10278399271642        1.85347193725600
C          -12.59131948404767        2.42753703136856        2.20115890825611
C          -13.80045662661637        2.76161944069168        2.76481241256425
C          -14.74861009559182        1.76497246593681        2.97917291845371
C          -14.48278658317644        0.45541088085072        2.64466143720416
C          -13.25676006814080        0.07384144694785        2.07841328935881
C          -12.93391992210455       -1.30159136941550        1.74421924242305
C          -13.81408412731261       -2.35152063057276        2.03109802734365
C          -13.50971665906299       -3.66451883430852        1.75064374137261
C          -12.28184903678745       -3.98672313201768        1.17359283378226
C          -11.39080389082059       -2.99048503595766        0.87134822274016
C          -11.68645479454979       -1.63673899071836        1.12786170327430
C          -10.79736441233170       -0.57624852540866        0.84305588644937
N           -9.54933607601289       -0.52828014316626        0.26882842211851
C           -8.76085056119862       -1.59606115430653       -0.19533082714146
C           -7.58928457811798       -1.93441213541728        0.47958744052499
C           -6.79351489967723       -2.96112004974747        0.02014771019913
C           -7.14254611639866       -3.67195185985141       -1.13201999630399
N           -6.33201017904509       -4.70094056162189       -1.60483294933538
C           -4.93807484869355       -4.62582527143431       -1.46877418166938
C           -4.19629929579528       -5.77079059669012       -1.17918319224308
C           -2.82167972986674       -5.69692810624945       -1.05870087933785
C           -2.16713870018900       -4.48558837014670       -1.21409133672833
C           -2.90030139887127       -3.34427685217144       -1.49726785210277
C           -4.27406560896221       -3.40988220048263       -1.62957356338942
C           -6.90578275499563       -5.82291963095575       -2.22212402781164
C           -8.08503045627493       -6.37745070485119       -1.72541693158168
C           -8.64479769471744       -7.48332991416319       -2.33615053096291
C           -8.03679225747923       -8.05714197590055       -3.44131341862626
C           -6.86226412727886       -7.51254625945716       -3.93553070272299
C           -6.29929748823554       -6.40186704558416       -3.33639336661571
C           -8.32033818631045       -3.32788092702139       -1.80388465208081
C           -9.12057497860824       -2.30561026711137       -1.34091986257266
C           -7.06718999592738        0.71399735394391       -1.09181400183255
C           -5.87974231639678        1.26981606092747       -1.45258621343030
C           -3.10842821258413        2.20258884396434       -1.79887919961306
C           -1.84417186416981        2.66490998431506       -2.02807025837232
C            1.11808577587901        6.47770921492333       -1.71756020351921
C            1.33693576120068        7.79378503656415       -2.07512227509118
H            0.65962019077394        9.45792861960560       -3.24276009261908
H           -1.24952139183010        8.22227172044107       -4.20541074849506
H           -1.64091344395737        5.87187052419432       -3.58530146290899
H           -0.01425768376241        2.51293692286864       -0.09010576359287
H            1.85478007844391        0.95976352047587        0.19235500315021
H            2.90448534231890       -0.84859250204177       -0.85924075249085
H            4.78390350794560       -2.38768667082290       -0.46115795130231
H            7.37336572622913       -5.58148871458888       -1.69753994561828
H            8.27920611770590       -7.87779771611427       -2.02228971823095
H           10.45588693851404       -8.46747084479138       -1.01372505309151
H           11.69701770092320       -6.85555444237993        0.29086029577248
H           12.59353626975309       -5.56053447441748        1.44752740329954
H           13.73341626997918       -3.94007153916013        2.83913488630350
H           12.77994492603901       -1.67891814526793        3.16660750293103
H           10.69529390098716       -1.06446578836049        2.04071176587692
H           10.48024129809492        0.17071078857646       -0.27290521164683
H           10.72489006651610        2.46557906459876        0.58187317204157
H            8.59859786428143        5.50033215339668        4.13907018958001
H            6.55330666710314        6.83863422890718        4.40317884972738
H            4.66976149858320        6.55675485457417        2.83106357232781
H            4.85558212726140        4.92599468421656        0.98063155615554
H            6.90650477975945        3.60361515169823        0.70310118473251
H           11.13462293086881        2.48938000594900        3.34953519075540
H           13.34020860774798        3.48655418442181        3.78067528548513
H           13.77490455255965        5.84492898678854        3.18804658009479
H           11.98522605294090        7.19335230713277        2.14813002988184
H            9.78533807195057        6.19306421461800        1.69640688098686
H            7.18739966850761        1.96136078069710        2.93523919711425
H            6.95256026259769       -0.33560166965351        2.08336911260583
H            7.53826798032552        0.79218725372185       -1.19402503124209
H            5.68080900448040        2.32410666983986       -1.57530498100139
H            3.93693693321242        2.87974991488402       -3.01240668714235
H            2.06461117259319        4.42665954752983       -3.30388145810116
H           -2.22549506931428        5.84109714224760       -0.90086486299333
H           -4.46232222971293        5.02565042664805       -0.48731911207222
H           -6.04129995801422        4.12277594597538        0.38874921947920
H           -8.17177380888084        3.13723919195072        1.00404493643223
H          -11.83162033202857        3.16971881862574        2.00819388795265
H          -14.01687398062139        3.78497243990269        3.03379335386028
H          -15.70494842918617        2.01947934488888        3.41348425616403
H          -15.25073638132581       -0.27969644148820        2.82604120370090
H          -14.76367089351141       -2.14092784968797        2.49642500810582
H          -14.21744494974240       -4.44518541999199        1.98748583768114
H          -12.03226886563636       -5.01778300725394        0.96958329507660
H          -10.43650111294139       -3.24493343751111        0.44065720307060
H           -7.31409616258965       -1.38666657870373        1.36874378735078
H           -5.89501834413745       -3.22509572768425        0.55709431930504
H           -4.70498054457057       -6.71476554607547       -1.04879972954582
H           -2.25911633104784       -6.59103834384485       -0.83302061256072
H           -1.09343879881714       -4.43185737563811       -1.11574437802072
H           -2.39767704739797       -2.39672532379053       -1.62458582896012
H           -4.84266882242503       -2.52154257812453       -1.86121876883236
H           -8.55353782515968       -5.93930602267086       -0.85615721927981
H           -9.55732330931240       -7.90481325292382       -1.94037085114562
H           -8.47501639052838       -8.92350141177589       -3.91348382933614
H           -6.38417015146401       -7.95072752886547       -4.79942869269477
H           -5.38765746382167       -5.97403376513755       -3.72722579802816
H           -8.59720730354794       -3.86090736522670       -2.70097452719157
H          -10.02334860050944       -2.03736005863066       -1.87060680577834
H           -7.39174553671419       -0.19277553048251       -1.57760251478929
H           -5.29933335937121        0.77741395156700       -2.21773255544211
H           -3.33285735121567        1.18073924544329       -2.05878225758933
H           -1.10626725657301        2.01759621867181       -2.47993645968799
H            1.77099777688773        5.98676527290767       -1.01128482576735
H            2.17134733652892        8.33017622165935       -1.64814601994503
