168
 energy: -259.426302601382 gnorm: 0.000056047855 xtb: 6.7.1 (edcfbbe)
C            0.39492974492526        8.12830890899467       -3.46190476419860
C           -0.72248099430894        7.41534812310946       -3.86608406990402
C           -0.93931575155482        6.13184197170136       -3.40279597797077
C           -0.03908810787457        5.54381531979947       -2.51437684796197
N           -0.25956963710402        4.24410225095581       -2.03941491271204
C            0.81493322673895        3.36982021379572       -1.85458059435893
C            0.81425544772811        2.45820871340943       -0.79670635746081
C            1.86447017531995        1.58193111159835       -0.62665163411283
C            2.96172859229681        1.59753184071852       -1.48744149351257
C            4.08332441255545        0.67304981087173       -1.28292288672670
C            3.85929575992556       -0.66031293343575       -0.93983964069852
C            4.91451552633853       -1.51812039160551       -0.70775236213963
C            6.22887751445182       -1.06145053904430       -0.79150578464415
C            7.32261142050765       -1.97188756181635       -0.48002712656144
N            7.39406911757272       -3.21409427675501       -0.88855879269872
C            8.56260289346541       -3.70169457992294       -0.38687577650152
C            9.12129769696417       -4.99633602081285       -0.57736884959182
C            8.47897172251083       -5.95591702005895       -1.36823827293311
C            9.04754118537119       -7.18987120597009       -1.56334540703935
C           10.27406458875019       -7.47935859007389       -0.96770213022219
C           10.91230475454658       -6.54620501908926       -0.18424868839700
C           10.36042038142546       -5.27585253632434        0.04497177915512
C           10.99790085870228       -4.27956635915965        0.88924129754174
C           12.19191336678084       -4.54871230307097        1.57458712443817
C           12.78146838881209       -3.62455946364688        2.40472036195595
C           12.18816669853572       -2.38078288621549        2.59940215848193
C           11.02258617911144       -2.07444015929057        1.94135017816637
C           10.41785127498512       -2.99398130767516        1.07194961641466
C            9.21117486050176       -2.72485809879158        0.36694189894852
N            8.40633974332870       -1.61136659249260        0.28903508253715
C            8.55114787605406       -0.33358576436559        0.86886547927766
C            9.59421614505124        0.50949326112196        0.49561502544907
C            9.65214646348512        1.79722926199630        0.98605448036557
C            8.66295873769992        2.27369428624139        1.85106289698772
N            8.67774181150782        3.59346985461510        2.29635588635125
C            7.46760585320172        4.28894836256724        2.44305890400749
C            7.29376093252218        5.19524836945780        3.48801223744760
C            6.10035256325559        5.87940862364769        3.62286442415744
C            5.06266526427410        5.66589164890856        2.72981020397506
C            5.22940568897714        4.76350912585417        1.69145158760305
C            6.42283089789532        4.08378864930152        1.54180271588037
C            9.89463235974614        4.23651507666220        2.56494294871871
C           10.93789705397004        3.54053706992467        3.17504201070742
C           12.13626525935207        4.17507604866498        3.44067744106223
C           12.31089923037644        5.51001580675946        3.11285544075483
C           11.27575357631647        6.20677652306462        2.51040929211571
C           10.07691386442811        5.57819008316784        2.23224150363183
C            7.64020546209176        1.40792790922096        2.24689094743083
C            7.58319226336397        0.12064622463909        1.75862217009569
C            6.45848650457596        0.25927644787258       -1.17391914234729
C            5.40014662988986        1.10940516892823       -1.41911236679336
C            2.96567151002333        2.52078848056195       -2.53242244659563
C            1.90823742410440        3.38568352030489       -2.72236059600068
C           -1.55920912597199        3.81941996735892       -1.74418780284186
C           -2.48386818728199        4.69124471230062       -1.16782578352520
C           -3.75483115835076        4.25667892309480       -0.85435665528697
C           -4.14908434304836        2.94210266081740       -1.10245866047521
C           -5.48471877876385        2.45841121312237       -0.73300373045892
C           -6.10581916664378        2.88633117482863        0.44101929145593
C           -7.33330879896528        2.38217013609480        0.81754710659924
C           -7.97508085867963        1.42262052809311        0.03601913625239
C           -9.24100681729222        0.86488404528402        0.48888300730418
N          -10.21222112599534        1.56659895771879        1.01852864406519
C          -11.20051950130143        0.67429419466989        1.30245312811355
C          -12.47841637166165        0.93940797584793        1.86932192869799
C          -12.87278140343702        2.24211392169629        2.19542899773875
C          -14.11687621140153        2.47990611467164        2.72431664304449
C          -14.98805099898569        1.41153566993285        2.93051335128676
C          -14.61011555830916        0.12659860919017        2.61741400607010
C          -13.34386490380674       -0.15879734113238        2.08253321715939
C          -12.90657763892873       -1.50840524376375        1.76799431385703
C          -13.71779681465353       -2.62399091579345        2.02336044587248
C          -13.30016548140825       -3.90695825205914        1.75831746492193
C          -12.03192588523303       -4.13404323975997        1.23233710104389
C          -11.20794479981242       -3.06903117103574        0.96366688257953
C          -11.62267713093348       -1.75136235634427        1.20629026232789
C          -10.80620672288214       -0.61469373010842        0.94681063771766
N           -9.54559204015071       -0.47494053879840        0.41183596943841
C           -8.65010728515973       -1.45766806793007       -0.06388713975543
C           -7.45462192552164       -1.67630810754633        0.61187794332403
C           -6.54099670961427       -2.58953287407359        0.13010708849742
C           -6.79598592225288       -3.29824305913570       -1.04709381984919
N           -5.86452437992524       -4.20321449797100       -1.54636076570978
C           -4.48984495819782       -3.97032017062695       -1.38333095905910
C           -3.62188295495218       -5.03058285389631       -1.12552455290426
C           -2.26716327015968       -4.80082399236816       -0.97729199899598
C           -1.75886003666252       -3.51545319376667       -1.07141627454447
C           -2.61763790943191       -2.45791181106128       -1.32424169771524
C           -3.97190186402634       -2.67953821571829       -1.48611593671618
C           -6.29249304858399       -5.35962586449513       -2.21836627312223
C           -7.40056973253564       -6.07294946123863       -1.76294570209863
C           -7.81689523000441       -7.21046075603745       -2.42801463067453
C           -7.13258178010048       -7.65919476864046       -3.54617592522986
C           -6.02649093443325       -6.95761918812993       -3.99814123695097
C           -5.60852764266618       -5.81360599962431       -3.34513043466214
C           -8.00348954255456       -3.07538236121048       -1.71687546965678
C           -8.91936760244507       -2.16584108905505       -1.23194732487841
C           -7.38263004147023        1.02705494432629       -1.16191121604770
C           -6.15830809870724        1.53909439526207       -1.53733162273746
C           -3.22497870361784        2.08125757710852       -1.69560183496142
C           -1.95416744611837        2.50834814923233       -2.01431428803890
C            1.08083504210046        6.26793801335629       -2.10610074367607
C            1.29430241227897        7.54732288312895       -2.58231357706926
H            0.56312947436590        9.12946123838837       -3.82950177295102
H           -1.42725186033546        7.85805764524023       -4.55498570286141
H           -1.80607145596529        5.57451948382423       -3.72732921848480
H           -0.01685436193122        2.44522470657942       -0.10677550741600
H            1.85172781931388        0.89458106839060        0.20646416708559
H            2.84629535560713       -1.02787576708387       -0.86722157293186
H            4.73878455094637       -2.55069878401039       -0.44522234082950
H            7.53483701296917       -5.68836052496698       -1.81806137236302
H            8.55450397972115       -7.93117648906258       -2.17512152675734
H           10.72932062698594       -8.44707315686809       -1.12285777976085
H           11.86082262628087       -6.81425343169686        0.25336510461626
H           12.66953026134522       -5.50860312713126        1.46240660951060
H           13.70119137584976       -3.86950885949589        2.91567636807423
H           12.63978986639658       -1.66110829765552        3.26632670690506
H           10.55498521467924       -1.11620032656518        2.10329607253856
H           10.34505211583070        0.15629068291730       -0.19658641054850
H           10.45297108418460        2.45269922977663        0.67880660826057
H            8.09702439451691        5.35606725871886        4.19215214581849
H            5.97761509990538        6.57792717699512        4.43776933407520
H            4.13037011120870        6.19848080388931        2.84265061935264
H            4.42807505169913        4.59067632413469        0.98773363338390
H            6.55201178472771        3.38650164719935        0.72730748924802
H           10.79973926800180        2.50309348809453        3.44324469932930
H           12.93575230183210        3.62522827669852        3.91565095941827
H           13.24690383921087        6.00394425308862        3.32601354763971
H           11.40476353848600        7.24640548409154        2.24678601522022
H            9.27458016560737        6.12136081265130        1.75477215551982
H            6.88351758088427        1.75625248920310        2.93314608947956
H            6.78432625373749       -0.54095585299176        2.05890077589244
H            7.46955286640661        0.62022819327271       -1.29095571069708
H            5.59531358487160        2.13419491447513       -1.69960245223218
H            3.79375409759824        2.53746105540216       -3.22582677956730
H            1.91855878869930        4.07826537194505       -3.55129902751751
H           -2.19511405186340        5.71149639771723       -0.96099419785292
H           -4.45699926202260        4.95180799036011       -0.41847069218797
H           -5.60706683962274        3.59985160565019        1.08000553952520
H           -7.80585190451264        2.70792149107728        1.73212903785326
H          -12.17106345458630        3.04201127292658        2.01314424892956
H          -14.42343678100450        3.48463762656874        2.97624464508714
H          -15.97106794510227        1.59370414949092        3.34075168850393
H          -15.31885337439195       -0.66739881834278        2.79148756030970
H          -14.69954022958602       -2.48661792824387        2.44682218347948
H          -13.95472994056176       -4.74017867852556        1.96855352110429
H          -11.69547418966798       -5.14218120200313        1.03937456101226
H          -10.22002112035237       -3.24580888118837        0.56977608634668
H           -7.24969411978292       -1.12935235734089        1.52034239652361
H           -5.62011004794065       -2.76015948316979        0.66649776696086
H           -4.01628260743465       -6.03270941541642       -1.04197063594092
H           -1.60573599994960       -5.63102838744438       -0.77689565388663
H           -0.70071775116479       -3.33935213529838       -0.95027491327405
H           -2.22750199255486       -1.45388926956954       -1.40284479479034
H           -4.63900079567721       -1.85597743926259       -1.69370038079030
H           -7.92823450343500       -5.73218544646688       -0.88399814106620
H           -8.67608595612056       -7.75509721094801       -2.06453586859178
H           -7.45832962793718       -8.55056898152740       -4.06074616094453
H           -5.48883466376535       -7.29865631927703       -4.87075620964786
H           -4.75020442281091       -5.26400656971767       -3.70287238994022
H           -8.21323623056879       -3.61118584578566       -2.63023903183993
H           -9.84470686105521       -1.98972338394495       -1.76162366640107
H           -7.88893911277695        0.32772719092720       -1.81056728021833
H           -5.72420974330316        1.23354487887369       -2.47792654170227
H           -3.50275908206374        1.05720430261347       -1.89477344936679
H           -1.25245901889445        1.82742863677426       -2.47373637054168
H            1.77859124417421        5.82186663640007       -1.41255745819613
H            2.16521540943811        8.09776416289716       -2.25695210180086
