  49
        -89.59634220
 C          8.6782503999       -2.0013551216       -0.0435094279
 O          8.0960795426       -0.7201461573       -0.0234615062
 C          6.7428920346       -0.6174872370       -0.0095928530
 C          6.2281918492        0.6819961002        0.0085403043
 C          4.8714185085        0.8953102356        0.0235834753
 C          3.9696302710       -0.1748770599        0.0212963967
 C          2.5436453901        0.0592544238        0.0348272008
 C          1.5148039661       -0.8451696840        0.0058643509
 C          0.2266136784       -0.2722574310        0.0437580549
 C         -0.9930652368       -1.0837290795        0.0362448883
 C         -1.1378964555       -2.0945713861       -0.9105724632
 C         -2.2697856817       -2.8856500759       -0.9261713767
 C         -3.2665341762       -2.6709417072        0.0163887546
 C         -4.4791393448       -3.5538844662        0.0181852211
 F         -4.8500228443       -3.9371345805       -1.2150286849
 F         -5.5543003453       -2.9781664301        0.5761855654
 F         -4.2716452907       -4.6973272903        0.7094020836
 C         -3.1258023325       -1.6775401713        0.9772554142
 C         -1.9933730748       -0.8884186176        0.9840012032
 C          0.2688174018        1.1069260395        0.0879239368
 C         -0.8093304519        2.0443567715        0.0412135055
 N         -2.0797621921        1.7400926775       -0.0629621849
 C         -2.7491737621        2.9287206426       -0.1011530850
 C         -4.1123339400        3.1899270056       -0.2068385544
 C         -4.5099884447        4.5093015585       -0.2202741389
 C         -3.5897419093        5.5574875858       -0.1306999674
 C         -2.2332765964        5.3235561863       -0.0250401812
 C         -1.8248960703        4.0005006099       -0.0123608584
 N         -0.5972010426        3.4035626144        0.0777178826
 S          1.9119637241        1.6793207202        0.0916184277
 C          4.4936572768       -1.4680599527        0.0036616488
 C          5.8564406948       -1.6909571144       -0.0121021337
 H          9.7542409153       -1.8354729543       -0.0457710540
 H          8.4043443021       -2.5817614426        0.8433290393
 H          8.3963643422       -2.5565911868       -0.9439127497
 H          6.9220969403        1.5073355449        0.0102197356
 H          4.4910304704        1.9065509648        0.0370391846
 H          1.6615147105       -1.9096835126       -0.0211667428
 H         -0.3662417510       -2.2496745246       -1.6497857928
 H         -2.3866209743       -3.6620319478       -1.6670346650
 H         -3.9030513564       -1.5236879676        1.7096843532
 H         -1.8799699107       -0.1187885522        1.7290102760
 H         -4.8188697808        2.3789516636       -0.2767916758
 H         -5.5602675848        4.7467430948       -0.3024575307
 H         -3.9508794695        6.5750186123       -0.1445583072
 H         -1.5227523627        6.1337804591        0.0437845013
 H          0.2958458135        3.8619395507        0.1482922918
 H          3.8302656126       -2.3184821416        0.0029427555
 H          6.2166305857       -2.7075370771       -0.0279357790
