  49
  -89.3019225589000       0.182994487188887      !
 C          9.0133207070       -0.4632118385        0.0866414916
 O          8.0076758921       -1.4371957299       -0.0603485765
 C          6.7090383766       -1.0444692741       -0.0302799587
 C          5.7596898118       -2.0601526655       -0.1778853673
 C          4.4155232282       -1.7762577861       -0.1604707828
 C          3.9621151029       -0.4616345756        0.0049179997
 C          2.5506833927       -0.1523151626        0.0242354471
 C          1.4775752692       -1.0039121745        0.0063117026
 C          0.2205693058       -0.3662882411        0.0480957222
 C         -1.0417369048       -1.1101844729        0.0480962593
 C         -1.2542697692       -2.1002952537       -0.9063955086
 C         -2.4345942000       -2.8187033650       -0.9251971553
 C         -3.4078041423       -2.5542369734        0.0270306134
 C         -4.7094939567       -3.2996576289        0.0258154832
 F         -5.0234418043       -3.7856694785        1.2425189824
 F         -4.7256850473       -4.3482313843       -0.8109443886
 F         -5.7470940510       -2.5180454243       -0.3337659783
 C         -3.2004167864       -1.5792264013        0.9961351224
 C         -2.0211282207       -0.8637497664        1.0061792629
 C          0.3320502691        1.0094696136        0.0809444967
 C         -0.7025513225        1.9946035340        0.0338875390
 N         -1.9870733471        1.7427433643       -0.0283710602
 C         -2.6067905514        2.9569236316       -0.0815368039
 C         -3.9606017778        3.2714823650       -0.1555596212
 C         -4.3038900536        4.6054574745       -0.1938007109
 C         -3.3388155382        5.6158362672       -0.1599977774
 C         -1.9905157962        5.3283705290       -0.0861093693
 C         -1.6363322481        3.9902635520       -0.0475006681
 N         -0.4324409859        3.3440467929        0.0268312444
 S          2.0016867104        1.4985041496        0.0741859270
 C          4.9177585093        0.5437345851        0.1474061121
 C          6.2701474944        0.2663919011        0.1321674021
 H          9.9565370846       -1.0042854492        0.0339617112
 H          8.9761537131        0.2774535529       -0.7184004606
 H          8.9417449368        0.0448921844        1.0535534672
 H          6.1116456612       -3.0712971305       -0.3068964670
 H          3.7071357383       -2.5798812910       -0.2820367254
 H          1.5711057001       -2.0746966027       -0.0070129779
 H         -0.4984238772       -2.2945443028       -1.6525269809
 H         -2.6004823708       -3.5791228252       -1.6727239206
 H         -3.9623763330       -1.3904293055        1.7365143809
 H         -1.8549423201       -0.1113841290        1.7588282422
 H         -4.7011259822        2.4887882222       -0.1830265030
 H         -5.3453680989        4.8847405784       -0.2524001905
 H         -3.6578697321        6.6468766061       -0.1930011251
 H         -1.2457481774        6.1099147620       -0.0610546351
 H          0.4808225828        3.7651531687        0.0589313882
 H          4.5923562212        1.5664243014        0.2754236827
 H          6.9708930127        1.0778812780        0.2484965155
  49
  -89.3018883933000       0.176496697660891      !
 C          8.6098522649       -2.2780340757       -0.0187115716
 O          8.0689253436       -0.9787268828       -0.0142259515
 C          6.7197138287       -0.8327176681       -0.0016871138
 C          6.2468064437        0.4826739468        0.0006666858
 C          4.8975472157        0.7394025559        0.0130389295
 C          3.9620217391       -0.3013699067        0.0236628249
 C          2.5442510312       -0.0216427137        0.0342662288
 C          1.4870254427       -0.8930118366        0.0161998013
 C          0.2178123533       -0.2788100058        0.0470679803
 C         -1.0271760726       -1.0509227739        0.0493113923
 C         -1.2045413096       -2.0680149736       -0.8851972368
 C         -2.3611358642       -2.8226500306       -0.8912805709
 C         -3.3502085760       -2.5647981362        0.0485462309
 C         -4.5904076545       -3.4084535497        0.0609650461
 F         -4.9737484083       -3.7945654965       -1.1675377782
 F         -5.6464418175       -2.7919551932        0.6118810481
 F         -4.4193331500       -4.5494865899        0.7659991874
 C         -3.1774933685       -1.5648353450        0.9973142079
 C         -2.0204244699       -0.8122807737        0.9945688158
 C          0.3040796624        1.0987541718        0.0745218083
 C         -0.7435777974        2.0695246851        0.0163883973
 N         -2.0231170463        1.8047742046       -0.0841725965
 C         -2.6542173825        3.0136368971       -0.1368051985
 C         -4.0083690023        3.3169715014       -0.2457334390
 C         -4.3636651194        4.6481200338       -0.2751797415
 C         -3.4103654808        5.6673715145       -0.1982552065
 C         -2.0620337634        5.3915095709       -0.0896835559
 C         -1.6961349728        4.0563302455       -0.0609481841
 N         -0.4881124438        3.4215999810        0.0364340100
 S          1.9646784514        1.6183511011        0.0713834427
 C          4.4444526690       -1.6107567670        0.0217316411
 C          5.7994124523       -1.8772635905        0.0087553326
 H          9.6905931599       -2.1466604012       -0.0229155148
 H          8.3178273833       -2.8386064231        0.8750773446
 H          8.3100758147       -2.8348442557       -0.9123387215
 H          6.9667308114        1.2853773035       -0.0076110506
 H          4.5496712805        1.7623712136        0.0142166634
 H          1.5996367194       -1.9619195519        0.0020785268
 H         -0.4384767973       -2.2566403018       -1.6224285178
 H         -2.5029606254       -3.6038187145       -1.6226894394
 H         -3.9491915174       -1.3773636272        1.7277764029
 H         -1.8822444881       -0.0377000590        1.7302047603
 H         -4.7404808301        2.5282005023       -0.3058992215
 H         -5.4058472573        4.9179899845       -0.3603000458
 H         -3.7388086315        6.6956807818       -0.2244645280
 H         -1.3259599458        6.1793888186       -0.0306367787
 H          0.4191483195        3.8520259390        0.1015051422
 H          3.7542249551       -2.4394916646        0.0312756848
 H          6.1269291729       -2.9049517171        0.0052632654
  49
  -89.3018102761000       0.162493653884000      !
 C          8.6078520124       -2.2776530939       -0.2737897518
 O          8.0722831069       -0.9987905297       -0.0304406543
 C          6.7240611072       -0.8452987260       -0.0236690186
 C          5.7999323635       -1.8634771785       -0.2408101582
 C          4.4463553664       -1.5915721249       -0.2121805051
 C          3.9695566213       -0.3030134574        0.0314006437
 C          2.5524345279       -0.0202835868        0.0532837587
 C          1.4959962544       -0.8914239414        0.0159934931
 C          0.2262162124       -0.2790097010        0.0600873730
 C         -1.0156486308       -1.0556361564        0.0415740659
 C         -1.1799300897       -2.0579834160       -0.9106677411
 C         -2.3312976132       -2.8210688080       -0.9395774577
 C         -3.3254745576       -2.5892831196       -0.0001154829
 C         -4.5945060529       -3.3887571783       -0.0145585240
 F         -5.6422375594       -2.6804734553       -0.4821733872
 F         -4.9542150749       -3.8049187200        1.2142982523
 F         -4.5218629377       -4.4909423381       -0.7766846420
 C         -3.1693941191       -1.5980361597        0.9620314147
 C         -2.0178694341       -0.8383564216        0.9829522592
 C          0.3118969297        1.0980410213        0.1151180210
 C         -0.7386399021        2.0666700981        0.0749622709
 N         -2.0190524454        1.7953620947        0.0098920373
 C         -2.6576303417        3.0000758918       -0.0364923168
 C         -4.0162285088        3.2937751571       -0.1106829872
 C         -4.3805259748        4.6223070801       -0.1419674338
 C         -3.4312956923        5.6474618655       -0.1008337042
 C         -2.0786839469        5.3807693635       -0.0263660714
 C         -1.7034373909        4.0481561961        0.0055479765
 N         -0.4897589699        3.4202662427        0.0771462834
 S          1.9723715413        1.6183632406        0.1264723717
 C          4.9084735267        0.7119058838        0.2463693446
 C          6.2564649156        0.4491128411        0.2216383274
 H          8.3290589777       -2.6474792799       -1.2656431950
 H          9.6889752307       -2.1575211003       -0.2258876668
 H          8.2903760167       -2.9977031455        0.4868501897
 H          6.1233796157       -2.8734374788       -0.4372379254
 H          3.7524648956       -2.3966782000       -0.3931386117
 H          1.6103801309       -1.9599387099       -0.0099509895
 H         -0.4078240033       -2.2282999409       -1.6460087138
 H         -2.4585858069       -3.5915383444       -1.6841918734
 H         -3.9484259647       -1.4317140262        1.6901272085
 H         -1.8902627180       -0.0767924228        1.7334260644
 H         -4.7440032730        2.4995400642       -0.1427971882
 H         -5.4262981462        4.8853547386       -0.1997346527
 H         -3.7665449696        6.6735022903       -0.1290638658
 H         -1.3466643923        6.1739085017        0.0039166391
 H          0.4169358455        3.8551561744        0.1135366535
 H          4.5639605761        1.7181306869        0.4376959282
 H          6.9800105487        1.2311789769        0.3888241745
  49
  -89.3018262152000       0.165257625248327      !
 C          8.6227217683       -2.2716685662        0.1244675356
 O          8.0789200480       -0.9855051864       -0.0549008783
 C          6.7303249647       -0.8367262898       -0.0262784081
 C          6.2547182690        0.4656994255       -0.2039594931
 C          4.9057695645        0.7245639467       -0.1903490146
 C          3.9739616237       -0.3021364076       -0.0017027971
 C          2.5558490588       -0.0234059693        0.0102503723
 C          1.5013804712       -0.8978929255        0.0087574813
 C          0.2308035744       -0.2867521236        0.0415208705
 C         -1.0123116802       -1.0622902391        0.0486715316
 C         -1.1914540844       -2.0749911013       -0.8895276194
 C         -2.3475381045       -2.8318855810       -0.8975152310
 C         -3.3304312351       -2.5831646823        0.0492760321
 C         -4.6039801466       -3.3756302504        0.0632299091
 F         -4.9036738602       -3.8421362780        1.2910024290
 F         -4.5778357943       -4.4448292157       -0.7466088956
 F         -5.6690487463       -2.6429769375       -0.3187660859
 C         -3.1578569364       -1.5829637962        0.9996944139
 C         -2.0025631382       -0.8289373928        0.9990200913
 C          0.3134990504        1.0913506330        0.0555220386
 C         -0.7389823292        2.0573530395        0.0064574354
 N         -2.0202457289        1.7850300687       -0.0331159733
 C         -2.6596691291        2.9890189006       -0.0904725057
 C         -4.0191752047        3.2825429174       -0.1472018790
 C         -4.3832562953        4.6107037349       -0.1959260162
 C         -3.4332457035        5.6358838998       -0.1885429889
 C         -2.0797185187        5.3694905826       -0.1319908369
 C         -1.7048778535        4.0373472241       -0.0833500922
 N         -0.4902697336        3.4106169410       -0.0203185157
 S          1.9727844970        1.6153902373        0.0311327248
 C          4.4586200929       -1.5983538038        0.1766978416
 C          5.8132528664       -1.8665424702        0.1653786097
 H          9.7025443329       -2.1447888850        0.0676968590
 H          8.3587118431       -2.6865465160        1.1024671228
 H          8.2977300527       -2.9588123941       -0.6633196563
 H          6.9726162248        1.2566851693       -0.3512826098
 H          4.5551311621        1.7368720683       -0.3309062164
 H          1.6179605421       -1.9664384865       -0.0038206119
 H         -0.4271970709       -2.2592751113       -1.6298848279
 H         -2.4866264792       -3.6108227887       -1.6315307831
 H         -3.9280553323       -1.4047579067        1.7344408643
 H         -1.8626095838       -0.0586639904        1.7386224038
 H         -4.7480046459        2.4885002382       -0.1546278595
 H         -5.4297512093        4.8732875115       -0.2427187015
 H         -3.7685774032        6.6615524630       -0.2288555857
 H         -1.3464806739        6.1622539134       -0.1265100170
 H          0.4164454962        3.8467453329       -0.0065104044
 H          3.7700467272       -2.4130304439        0.3370721191
 H          6.1431346151       -2.8832110085        0.3099683385
  49
  -89.3017858675000       0.158350335764936      !
 C          8.9993746676       -0.4685743141       -0.1507304907
 O          7.9952345704       -1.4425980878        0.0046703589
 C          6.6969922786       -1.0474697616        0.0106195064
 C          5.7496365254       -2.0627380222        0.1741266378
 C          4.4059610171       -1.7764561529        0.1915345539
 C          3.9514965030       -0.4596807085        0.0465029917
 C          2.5403263614       -0.1482120263        0.0555538518
 C          1.4660993756       -0.9982571481        0.0452820262
 C          0.2098214630       -0.3579384104        0.0715193943
 C         -1.0533676396       -1.1007433184        0.0641351339
 C         -1.2568212612       -2.0948907336       -0.8898373851
 C         -2.4385155338       -2.8086513051       -0.9177492538
 C         -3.4257466604       -2.5340864504        0.0200649341
 C         -4.6964997305       -3.3301188460       -0.0169435976
 F         -5.1763441419       -3.4813737412       -1.2646135759
 F         -5.6873269153       -2.7904607036        0.7066430801
 F         -4.5259539423       -4.5822322555        0.4615066098
 C         -3.2250008969       -1.5616437901        0.9908436246
 C         -2.0422595531       -0.8494954983        1.0101850424
 C          0.3235116029        1.0177980509        0.0886669549
 C         -0.7066465441        2.0075387890        0.0373766736
 N         -1.9939347399        1.7652857202        0.0004506642
 C         -2.6051147620        2.9839745408       -0.0555201436
 C         -3.9574962827        3.3096149971       -0.1050822312
 C         -4.2906197029        4.6461796915       -0.1482948768
 C         -3.3168869344        5.6488678490       -0.1438940716
 C         -1.9697909202        5.3504941689       -0.0955413500
 C         -1.6261429462        4.0097648684       -0.0508855945
 N         -0.4263880291        3.3547236347        0.0091114113
 S          1.9943657012        1.5038729580        0.0768540209
 C          4.9052105086        0.5454253500       -0.1094256759
 C          6.2570103478        0.2656383723       -0.1293997710
 H          9.9428421674       -1.0109470739       -0.1170787210
 H          8.9134771088        0.0469109338       -1.1125938840
 H          8.9757479479        0.2664007352        0.6598914181
 H          6.1028045591       -3.0752491892        0.2878118538
 H          3.6986512347       -2.5790796452        0.3272102114
 H          1.5581873434       -2.0691375271        0.0321466530
 H         -0.4920049530       -2.2955477435       -1.6253099635
 H         -2.6027955503       -3.5705987888       -1.6647571747
 H         -3.9937213130       -1.3621153252        1.7211121346
 H         -1.8819514128       -0.0962568859        1.7633809639
 H         -4.7053686730        2.5331678505       -0.1085516646
 H         -5.3308373326        4.9334945880       -0.1872696617
 H         -3.6282426747        6.6822715908       -0.1786945731
 H         -1.2182760056        6.1257247626       -0.0913341332
 H          0.4904197581        3.7690358644        0.0217796641
 H          4.5785902366        1.5691803666       -0.2230858513
 H          6.9564562192        1.0767001327       -0.2562022059
  49
  -89.3013936509000       0.104560757141984      !
 C          8.6022678852       -2.2250145020        0.4127507119
 O          8.0559673431       -1.0003826377       -0.0153636602
 C          6.7074911277       -0.8464037062       -0.0014534576
 C          6.2306727480        0.4005805315       -0.4160006458
 C          4.8824102362        0.6641274487       -0.4274090601
 C          3.9550498157       -0.3060010106       -0.0334207297
 C          2.5371699147       -0.0224317017       -0.0360059802
 C          1.4820419462       -0.8936618820        0.0032461211
 C          0.2124104179       -0.2779151723        0.0231771094
 C         -1.0287330547       -1.0564648482        0.0509115976
 C         -1.1983387352       -2.0933070316       -0.8635468631
 C         -2.3498918373       -2.8557851257       -0.8575177893
 C         -3.3421377467       -2.5847425228        0.0747049247
 C         -4.5838133295       -3.4254972218        0.1124341261
 F         -4.4792732934       -4.4438338454        0.9953738337
 F         -4.8735922533       -3.9943458860       -1.0686117836
 F         -5.6752737126       -2.7349443031        0.4789506615
 C         -3.1760217674       -1.5660789736        1.0051223865
 C         -2.0235279662       -0.8063037581        0.9914761973
 C          0.2994359205        1.0995116769       -0.0112697668
 C         -0.7445002193        2.0754018562       -0.0603186444
 N         -2.0287762375        1.8272401448        0.0168082287
 C         -2.6525382745        3.0381236876       -0.0687477254
 C         -4.0070517046        3.3561899656       -0.0305182775
 C         -4.3529593938        4.6864018713       -0.1300387980
 C         -3.3899214223        5.6900903780       -0.2663847124
 C         -2.0410036254        5.3992614169       -0.3062327008
 C         -1.6844757466        4.0650620898       -0.2044089222
 N         -0.4786203422        3.4190315274       -0.1958536635
 S          1.9607043297        1.6168536806       -0.0761344680
 C          4.4391607337       -1.5486801125        0.3744813445
 C          5.7934521391       -1.8193566453        0.3933312001
 H          8.3414161618       -2.4384189728        1.4541809054
 H          8.2759730595       -3.0545459298       -0.2223638809
 H          9.6816858448       -2.1109402144        0.3286999682
 H          6.9469595163        1.1453215160       -0.7241595886
 H          4.5285049559        1.6318767206       -0.7523597554
 H          1.5993177195       -1.9621664170        0.0247492297
 H         -0.4294589299       -2.2920012283       -1.5953444032
 H         -2.4840042666       -3.6518134674       -1.5740823828
 H         -3.9512240701       -1.3696408334        1.7296579782
 H         -1.8918183276       -0.0161524640        1.7109267364
 H         -4.7468054853        2.5792353495        0.0738873059
 H         -5.3952164302        4.9678167378       -0.1036899133
 H         -3.7112200951        6.7181834976       -0.3427510003
 H         -1.2974451570        6.1752400145       -0.4113208821
 H          0.4327163260        3.8377173574       -0.2779527155
 H          3.7499424496       -2.3118176319        0.7011037586
 H          6.1250187738       -2.7907961575        0.7244775157
  49
  -89.3002447304000       3.099998014913193E-002 !
 C          8.8077264941       -0.9084115380       -0.7031861335
 O          7.8377626967       -1.6148529856        0.0326682535
 C          6.5680661537       -1.1363439807        0.0673867211
 C          6.1462747975        0.0617572873       -0.5018064670
 C          4.8178088086        0.4324957622       -0.4247839139
 C          3.8740486250       -0.3767873426        0.2032741352
 C          2.4709971586       -0.0255811861        0.2056691210
 C          1.3934372811       -0.8612570577        0.3071074610
 C          0.1388520297       -0.2233345440        0.1893983695
 C         -1.0994870178       -1.0040725382        0.1901231125
 C         -2.0669602795       -0.8261770432       -0.7946918916
 C         -3.1765391736       -1.6467569534       -0.8411689772
 C         -3.3287049155       -2.6541641480        0.1025514919
 C         -4.4909619081       -3.5989670617        0.0264488149
 F         -5.5293979427       -3.1144167724       -0.6695336842
 F         -4.9687905132       -3.9396923282        1.2358381804
 F         -4.1531817518       -4.7626223657       -0.5733300717
 C         -2.3766478477       -2.8360122593        1.0976895409
 C         -1.2689450945       -2.0134111649        1.1365945636
 C          0.2634364040        1.1421706711        0.0252506524
 C         -0.7477912792        2.1503837387       -0.0535320179
 N         -2.0414424466        1.9418300030       -0.0561470418
 C         -2.6219300619        3.1746076507       -0.1369167430
 C         -3.9656646695        3.5349396681       -0.1841419408
 C         -4.2638430179        4.8772052898       -0.2770496839
 C         -3.2642106114        5.8529451318       -0.3215636998
 C         -1.9251168258        5.5203677368       -0.2758983166
 C         -1.6166842727        4.1734438227       -0.1847196115
 N         -0.4338035354        3.4887302259       -0.1295188490
 S          1.9410879737        1.6154467014       -0.0025912763
 C          4.3129247158       -1.5644677266        0.7991947315
 C          5.6346675521       -1.9340157630        0.7361964677
 H          8.9932677227        0.0836250546       -0.2795102168
 H          9.7173588242       -1.5029617670       -0.6368224906
 H          8.5170464053       -0.8079062766       -1.7538087601
 H          6.8412256887        0.7106402683       -1.0109127570
 H          4.4999292843        1.3609502629       -0.8776065152
 H          1.4879680071       -1.9276054843        0.4061384206
 H         -1.9417341269       -0.0509017027       -1.5311909965
 H         -3.9218369651       -1.5124574587       -1.6097858237
 H         -2.5059998579       -3.6184704491        1.8301521279
 H         -0.5295474676       -2.1505376106        1.9114106103
 H         -4.7343653400        2.7801781414       -0.1493780322
 H         -5.2965337137        5.1905793816       -0.3171875257
 H         -3.5484337045        6.8922178529       -0.3938899515
 H         -1.1531862800        6.2747448958       -0.3103015004
 H          0.4931363560        3.8802865926       -0.1334102883
 H          3.6091464102       -2.1924787225        1.3226715730
 H          5.9794068120       -2.8478930928        1.1932043377
  49
  -89.2997744377000       1.884646296184248E-002 !
 C          9.0834969400       -0.4677530158       -0.1349706480
 O          8.0844260227       -1.4429975890        0.0453863997
 C          6.7838086833       -1.0548346705        0.0328185294
 C          5.8408544175       -2.0703340825        0.2169264202
 C          4.4955968530       -1.7905007568        0.2213062612
 C          4.0349651121       -0.4801930138        0.0422049200
 C          2.6227230724       -0.1746374522        0.0415755101
 C          1.5524896489       -1.0337863996        0.0532820097
 C          0.3005346115       -0.3940456613        0.0429148130
 C         -0.9987591908       -1.0876813491        0.0389685902
 C         -1.5993596640       -1.4309690126       -1.1666999291
 C         -2.8220202332       -2.0713387150       -1.1779058353
 C         -3.4468715512       -2.3770129939        0.0248417640
 C         -4.7835369316       -3.0571708455       -0.0169637122
 F         -5.7537778988       -2.2530144589       -0.4950114212
 F         -5.2073635523       -3.4811732506        1.1824494035
 F         -4.7810568767       -4.1405011090       -0.8186858576
 C         -2.8535060165       -2.0436259170        1.2336499634
 C         -1.6293734520       -1.4026688581        1.2357610514
 C          0.4082260043        0.9787172842        0.0254724642
 C         -0.6693652098        1.9141771901        0.0070231260
 N         -1.9358321257        1.5764959170        0.0050132705
 C         -2.6337996205        2.7497011275       -0.0199665771
 C         -4.0065570347        2.9783791036       -0.0359674865
 C         -4.4350140719        4.2879025361       -0.0636850079
 C         -3.5356095018        5.3573909707       -0.0754614438
 C         -2.1698312465        5.1556738370       -0.0598620754
 C         -1.7307058997        3.8429333776       -0.0320060855
 N         -0.4845656788        3.2757893063       -0.0145144271
 S          2.0722016322        1.4770069907        0.0178843639
 C          4.9845740806        0.5249801840       -0.1374528054
 C          6.3377661207        0.2516315170       -0.1447946041
 H          9.0524651731        0.2906453968        0.6542299991
 H         10.0300748269       -1.0033659191       -0.0818583507
 H          8.9977402998        0.0189745823       -1.1121488929
 H          6.1984891572       -3.0783574827        0.3560006216
 H          3.7918286618       -2.5931653664        0.3726575475
 H          1.6485285997       -2.1042381147        0.0580333144
 H         -1.1097373885       -1.1847976170       -2.0964221115
 H         -3.2961892912       -2.3353893493       -2.1111204786
 H         -3.3475095645       -2.2829128456        2.1628353401
 H         -1.1635856947       -1.1350245306        2.1718037092
 H         -4.6964889157        2.1502619344       -0.0280225899
 H         -5.4937266590        4.5001958483       -0.0776322760
 H         -3.9203800927        6.3660586700       -0.0980396539
 H         -1.4753969557        5.9826501053       -0.0693631065
 H          0.4011019863        3.7533096773       -0.0145332778
 H          4.6533517930        1.5439575931       -0.2788977898
 H          7.0335948149        1.0626725716       -0.2904527192
