  70
  -111.009527934100       0.512898447828981      !
 C          8.0304528085       -3.5259942110       -0.4456854623
 C          6.6776453427       -3.7547282744       -0.6844047720
 C          5.7335477595       -2.7613598870       -0.4929076695
 C          6.1738096616       -1.5259393907       -0.0400805505
 C          7.5516576123       -1.2750735825        0.1693442699
 C          8.4805147502       -2.2867365231       -0.0291852170
 C          7.6613952129        0.1038465868        0.5555799920
 C          8.7331881367        0.9122597682        0.9075634813
 C          8.4825665834        2.2231481604        1.2683189703
 C          7.1826085562        2.7216538021        1.3016275429
 C          6.0984141611        1.9341212192        0.9554085031
 C          6.3457585700        0.6279688765        0.5585158567
 N          5.4560788469       -0.3682955047        0.1985522565
 C          4.0732765659       -0.2368313907        0.1180590667
 C          3.2543513049       -1.2328973917        0.7091190059
 C          1.8804171297       -1.1326201527        0.6625104725
 C          1.3093327832       -0.0480913635        0.0171542906
 C          2.1396210969        0.9871506357       -0.5984582108
 C          3.5159802035        0.8645164796       -0.5268368613
 C          1.2592353405        1.9631224321       -1.1812755242
 C          1.2373827695        3.1780481121       -1.8959883035
 C         -0.0073894629        3.7250402849       -2.2134309015
 C         -1.2496034649        3.1792627349       -1.8851857168
 C         -1.2661814325        1.9640351778       -1.1705783102
 C         -2.1424345246        0.9869090808       -0.5833271791
 C         -3.5182235198        0.8640321468       -0.5023824965
 C         -4.0705486448       -0.2451090085        0.1329831177
 N         -5.4539179026       -0.3760609688        0.2164826743
 C         -6.1789655021       -1.5197039557       -0.0615861429
 C         -5.7444642198       -2.7457146171       -0.5444621758
 C         -6.6955775843       -3.7233467644       -0.7772340348
 C         -8.0491362754       -3.4882519665       -0.5485041845
 C         -8.4923337176       -2.2585257083       -0.0979855758
 C         -7.5565277497       -1.2624714329        0.1425877230
 C         -7.6573940220        0.1047152963        0.5713138072
 C         -8.7234807272        0.9122901296        0.9416166415
 C         -8.4622589133        2.2083075658        1.3463077807
 C         -7.1579015223        2.6931803372        1.4036376170
 C         -6.0793556744        1.9068362151        1.0387358874
 C         -6.3372631538        0.6161390129        0.5998913335
 C         -3.2489300098       -1.2478048147        0.7069010159
 C         -1.8749720323       -1.1433390345        0.6578642293
 C         -1.3084623748       -0.0507916970        0.0221254884
 N         -0.0000543788        0.2922837877       -0.1839207265
 C         -0.0024972883        1.4770546255       -0.8866970021
 H          8.7369132741       -4.3273920295       -0.6025190834
 H          6.3582851822       -4.7258803263       -1.0317465864
 H          4.6912439382       -2.9416267853       -0.7057294541
 H          9.5319569482       -2.1037911030        0.1327385923
 H          9.7386610102        0.5196465540        0.9049892898
 H          9.3031454756        2.8692229981        1.5423452060
 H          7.0150795872        3.7427610002        1.6093702927
 H          5.0940101137        2.3247613322        1.0090009318
 H          3.7232282469       -2.0423977147        1.2444335516
 H          1.2636100553       -1.8819100397        1.1352958293
 H          4.1539792717        1.5920845469       -1.0054871416
 H          2.1437686689        3.6790185540       -2.1964852380
 H         -0.0092701582        4.6551855055       -2.7655659296
 H         -2.1584084752        3.6806991013       -2.1776610498
 H         -4.1604118964        1.5968969106       -0.9672307991
 H         -4.7009473382       -2.9294673788       -0.7485422677
 H         -6.3813566559       -4.6865798149       -1.1500646430
 H         -8.7613826812       -4.2768546332       -0.7393832058
 H         -9.5437248864       -2.0706662034        0.0578006241
 H         -9.7328792363        0.5304427300        0.9193779148
 H         -9.2783270624        2.8533060329        1.6360559532
 H         -6.9828291898        3.7022896574        1.7452861748
 H         -5.0710526757        2.2846893812        1.1091895002
 H         -3.7148611499       -2.0670561637        1.2302138101
 H         -1.2549886535       -1.8971693832        1.1192392022
  70
  -111.008957888300       0.280579846764715      !
 C          8.0394761798       -3.4114075194        0.9062008829
 C          6.6848727823       -3.7131836910        0.7898872256
 C          5.7375023234       -2.7202552100        0.6130169566
 C          6.1765212386       -1.4049082284        0.5678273762
 C          7.5553459728       -1.0930964482        0.6509254025
 C          8.4875006743       -2.1057396440        0.8278656375
 C          7.6619090759        0.3309712225        0.4975945556
 C          8.7325602373        1.2137825040        0.5105856451
 C          8.4778332072        2.5647072137        0.3632949827
 C          7.1753547230        3.0384849568        0.2268155917
 C          6.0922816209        2.1771920041        0.2109447917
 C          6.3434598589        0.8173149317        0.3230220460
 N          5.4554765575       -0.2419791240        0.3689544080
 C          4.0725546358       -0.1517080661        0.2437039322
 C          3.2516851024       -0.8523266122        1.1636193669
 C          1.8776697250       -0.7823666580        1.0747168266
 C          1.3093860226       -0.0281986249        0.0613676616
 C          2.1421936371        0.7013218284       -0.8943767567
 C          3.5180533399        0.6230386015       -0.7719834810
 C          1.2648965163        1.3766115495       -1.8116726429
 C          1.2467999229        2.2280974599       -2.9349471154
 C          0.0038945895        2.6036922727       -3.4479293301
 C         -1.2399431383        2.2134401492       -2.9485198965
 C         -1.2601065341        1.3647215445       -1.8231796561
 C         -2.1391512752        0.6664152916       -0.9250294138
 C         -3.5151089692        0.5706004973       -0.8188406878
 C         -4.0719007786       -0.1949306258        0.2025864266
 N         -5.4553397184       -0.2873714360        0.3206906320
 C         -6.3411727934       -0.5239326765       -0.7145682557
 C         -6.0862535305       -0.7936601685       -2.0513988342
 C         -7.1680114548       -1.0324911201       -2.8807296321
 C         -8.4730065052       -1.0166862270       -2.3945299940
 C         -8.7318325342       -0.7838739888       -1.0564618374
 C         -7.6624164529       -0.5424316912       -0.2055430576
 C         -7.5596669650       -0.3001545141        1.2064308371
 C         -8.4955606370       -0.1804787303        2.2240252149
 C         -8.0505106633        0.0965432670        3.5033656584
 C         -6.6948612509        0.2731323874        3.7686215287
 C         -5.7437195107        0.1590132514        2.7700576891
 C         -6.1802578954       -0.1516745608        1.4903145030
 C         -3.2532968737       -0.8896499669        1.1287316788
 C         -1.8790155651       -0.8241894246        1.0392920468
 C         -1.3084531630       -0.0551544241        0.0384655918
 N          0.0008219381        0.1982982816       -0.2670906365
 C          0.0019333941        1.0293591071       -1.3656445699
 H          8.7487662718       -4.2134037142        1.0463804450
 H          6.3667646742       -4.7440563447        0.8320509753
 H          4.6934211942       -2.9669342706        0.4982043089
 H          9.5397666333       -1.8751680133        0.8957966211
 H          9.7404892827        0.8496613778        0.6394611989
 H          9.2975277074        3.2675704678        0.3673418543
 H          7.0052433992        4.1008005404        0.1367779918
 H          5.0859058548        2.5576275643        0.1287508722
 H          3.7184836936       -1.3975756857        1.9678022452
 H          1.2585452499       -1.2982625591        1.7932169253
 H          4.1584790565        1.1185166853       -1.4859164645
 H          2.1548525362        2.5834331150       -3.3954090744
 H          0.0047238976        3.2563638913       -4.3110307318
 H         -2.1472121339        2.5608173579       -3.4166563591
 H         -4.1541719423        1.1225461211       -1.4914316751
 H         -5.0781694991       -0.8318548134       -2.4341819721
 H         -6.9950691127       -1.2404343503       -3.9259045213
 H         -9.2915626166       -1.2032635665       -3.0735155490
 H         -9.7419614639       -0.7948984592       -0.6763332006
 H         -9.5483570535       -0.2954894227        2.0155434669
 H         -8.7627699275        0.1909652187        4.3094120649
 H         -6.3787000346        0.5102799398        4.7733384424
 H         -4.6985229944        0.3235140822        2.9813194781
 H         -3.7216516938       -1.5147801712        1.8715063829
 H         -1.2614510798       -1.3752463922        1.7325494878
  70
  -111.007836894200       8.568074910805251E-002 !
 C          7.9095093029       -3.6260968137        0.0852905689
 C          6.5480137049       -3.8454014728       -0.1065633134
 C          5.6366926488       -2.8037627434       -0.0668626169
 C          6.1163025649       -1.5280470152        0.1924516666
 C          7.5048201204       -1.2922509057        0.3417983282
 C          8.4013172742       -2.3510749048        0.2949047835
 C          7.6637536355        0.1241777982        0.5081488083
 C          8.7711784490        0.9385022667        0.7010041086
 C          8.5730813071        2.2972975866        0.8613837074
 C          7.2901022907        2.8382537346        0.8611429247
 C          6.1710403051        2.0444584722        0.6714837919
 C          6.3641168342        0.6867516673        0.4621395873
 N          5.4356885641       -0.3234827885        0.2699295415
 C          4.0588371551       -0.1721797150        0.1792496488
 C          3.2236087870       -1.1074356587        0.8504023602
 C          1.8526093582       -1.0269081949        0.7515122349
 C          1.2942761491       -0.0068391843       -0.0018445362
 C          2.1365932011        1.0020952534       -0.6490171308
 C          3.5111656236        0.8786995419       -0.5548358064
 C          1.2643761215        1.9545987853       -1.2815259611
 C          1.2521239907        3.1469735929       -2.0322057875
 C          0.0101292920        3.6875777968       -2.3764800093
 C         -1.2355068662        3.1567793468       -2.0418029935
 C         -1.2626922139        1.9600366362       -1.2949499366
 C         -2.1460946495        0.9918211193       -0.7030114122
 C         -3.5243672229        0.8780863864       -0.6098794183
 C         -4.0732638133       -0.2516159814       -0.0148086106
 N         -5.4613584752       -0.3692526948        0.1094244738
 C         -6.2240153686       -1.4415860198       -0.2996625299
 C         -5.8507705652       -2.5460609735       -1.0524590434
 C         -6.8337693758       -3.4600829000       -1.3837813999
 C         -8.1554510234       -3.2822210881       -0.9808680325
 C         -8.5351175066       -2.1759943463       -0.2427314963
 C         -7.5677013348       -1.2425046898        0.0988902483
 C         -7.5993892916        0.0090688625        0.8063144601
 C         -8.5947130098        0.7075455418        1.4740934437
 C         -8.2632499967        1.8952894401        2.0999941130
 C         -6.9596240470        2.3851722222        2.0703172386
 C         -5.9501045002        1.7071372693        1.4123233772
 C         -6.2795547244        0.5193416869        0.7757470532
 C         -3.2609170251       -1.2886258932        0.4986403028
 C         -1.8861612409       -1.1701085956        0.4850306576
 C         -1.3205069860       -0.0459019783       -0.0909834021
 N         -0.0085274988        0.3103164860       -0.2596581472
 C         -0.0019771347        1.4778010708       -0.9896759115
 H          8.5890995533       -4.4645634129        0.0539869009
 H          6.1937223150       -4.8474804194       -0.2958692249
 H          4.5893845683       -2.9854315942       -0.2502487206
 H          9.4595770663       -2.1771615214        0.4160487333
 H          9.7632053810        0.5141831415        0.7284362487
 H          9.4218454885        2.9491610586        1.0049387007
 H          7.1628107917        3.8989068836        1.0166604828
 H          5.1830304711        2.4761823418        0.7036298114
 H          3.6791622107       -1.8475311845        1.4874215504
 H          1.2258505955       -1.7339342883        1.2738377120
 H          4.1542268434        1.5636722339       -1.0857847081
 H          2.1619745112        3.6371221821       -2.3401497855
 H          0.0161733454        4.6011454244       -2.9564123449
 H         -2.1401611046        3.6527157714       -2.3555876274
 H         -4.1702003014        1.6365119962       -1.0270623284
 H         -4.8301132870       -2.6777853283       -1.3782280085
 H         -6.5734172139       -4.3262551416       -1.9736455918
 H         -8.8951245678       -4.0175349071       -1.2605241540
 H         -9.5629761826       -2.0344955439        0.0551858792
 H         -9.6024931913        0.3226238554        1.5127669847
 H         -9.0227045325        2.4499167614        2.6306122645
 H         -6.7305713038        3.3096036166        2.5790024986
 H         -4.9375082040        2.0808814127        1.4052056038
 H         -3.7342745917       -2.1468383240        0.9483994148
 H         -1.2672943487       -1.9403465965        0.9198059138
  70
  -111.007521291400       6.135391076486569E-002 !
 C          8.4820733718       -2.4184948657        2.0342306053
 C          7.2463918477       -2.3978985640        2.6765324456
 C          6.1473553201       -1.7808242969        2.1061843945
 C          6.3103604719       -1.1878795951        0.8625414399
 C          7.5703116523       -1.1811693804        0.2151500716
 C          8.6580638538       -1.8063706551        0.8070228252
 C          7.3981203547       -0.4471406854       -1.0078238556
 C          8.2440401063       -0.1344543592       -2.0628449907
 C          7.7301777155        0.5668305902       -3.1379156251
 C          6.3883439314        0.9373998732       -3.1781247116
 C          5.5271885900        0.6394671675       -2.1372880022
 C          6.0447769125       -0.0347233276       -1.0405410817
 N          5.4006850083       -0.4853934653        0.0977134623
 C          4.0496241380       -0.2844626654        0.3699481738
 C          3.2388060009       -1.3868973979        0.7372251859
 C          1.8735344951       -1.2377500140        0.8687299233
 C          1.3120072448        0.0128121628        0.6686801578
 C          2.1476049208        1.1748567399        0.3720469329
 C          3.5088051787        0.9887253887        0.2135315021
 C          1.2808150286        2.3091671964        0.2077641614
 C          1.2720965662        3.6793273448       -0.1236491464
 C          0.0339919334        4.3089729938       -0.2589074808
 C         -1.2133911386        3.6977629126       -0.1189758388
 C         -1.2411282294        2.3274148249        0.2089540460
 C         -2.1260688858        1.2102077727        0.3942717234
 C         -3.4918328776        1.0493374084        0.2525107132
 C         -4.0514048023       -0.2178499183        0.4000040257
 N         -5.4055041838       -0.4053743040        0.1467550928
 C         -5.9406067700       -1.4036746371       -0.6499136162
 C         -5.3032109686       -2.4278919102       -1.3346056115
 C         -6.0802075441       -3.2749583901       -2.1055244476
 C         -7.4580798075       -3.1031976543       -2.2081783126
 C         -8.0958755958       -2.0644001090       -1.5559545167
 C         -7.3368633778       -1.2031927503       -0.7758884261
 C         -7.6517741297       -0.0259184824       -0.0165131230
 C         -8.8326901777        0.6571427546        0.2383253750
 C         -8.7875525769        1.7765033928        1.0484916785
 C         -7.5909984030        2.1995778324        1.6222502549
 C         -6.4011789240        1.5347518974        1.3817145456
 C         -6.4319437651        0.4359308323        0.5352068227
 C         -3.2513452302       -1.3333748676        0.7591916317
 C         -1.8862306749       -1.2040167641        0.9020263422
 C         -1.3049292586        0.0356333949        0.6892441668
 N          0.0062123007        0.4250048189        0.6576650931
 C          0.0159478127        1.7746306135        0.3775167141
 H          9.3162194796       -2.9118608128        2.5103405725
 H          7.1449174875       -2.8697040410        3.6423752445
 H          5.1989302871       -1.7513093193        2.6199001838
 H          9.6211581660       -1.8062268407        0.3196015409
 H          9.2783607530       -0.4422541303       -2.0451925957
 H          8.3722729135        0.8204682997       -3.9681361977
 H          6.0091639778        1.4630629416       -4.0415710566
 H          4.4838922866        0.9104487895       -2.1882419385
 H          3.6928093784       -2.3594755005        0.8370844272
 H          1.2528870515       -2.0918347289        1.0946443496
 H          4.1527159531        1.8245903897       -0.0153072638
 H          2.1842289216        4.2334826921       -0.2779632671
 H          0.0412768189        5.3610476527       -0.5116999740
 H         -2.1174773312        4.2650021910       -0.2729981542
 H         -4.1085319978        1.8828975408       -0.0472896651
 H         -4.2328117120       -2.5535159503       -1.2886385976
 H         -5.6049693201       -4.0807180843       -2.6445471266
 H         -8.0310814330       -3.7849923371       -2.8186379643
 H         -9.1605499253       -1.9174459182       -1.6552199335
 H         -9.7644957184        0.3165821638       -0.1868035741
 H         -9.6943616430        2.3257350036        1.2533956526
 H         -7.5912358202        3.0621085664        2.2714495731
 H         -5.4840784968        1.8577644367        1.8495931120
 H         -3.7324375782       -2.2784989999        0.9518445663
 H         -1.2833914892       -2.0581413023        1.1718477618
  70
  -111.007492090400       5.948704553338532E-002 !
 C          7.3550789598       -3.8361707820       -0.7633585458
 C          5.9689054746       -3.9016107613       -0.6485857285
 C          5.2216580131       -2.7925080593       -0.2936176645
 C          5.8970375746       -1.6076956241       -0.0384169440
 C          7.3024929814       -1.5248327956       -0.1876418500
 C          8.0314753896       -2.6501903046       -0.5460605186
 C          7.6601935915       -0.1573632834        0.0662606076
 C          8.8685524698        0.5246605779        0.0793960246
 C          8.8643063387        1.8713385473        0.3920470089
 C          7.6794854565        2.5300210321        0.7120534436
 C          6.4627845153        1.8707051962        0.7051480464
 C          6.4548368668        0.5281807045        0.3549875397
 N          5.3973325539       -0.3597206761        0.2925788841
 C          4.0485589429       -0.0567576613        0.4469499145
 C          3.2346078140       -0.9337920801        1.2095132196
 C          1.8717854519       -0.7441882436        1.2820676026
 C          1.3087735103        0.3213909665        0.5987144725
 C          2.1434229837        1.2821542523       -0.1226504326
 C          3.5080570111        1.0619500224       -0.1826313114
 C          1.2686253760        2.2444855815       -0.7365803432
 C          1.2526752009        3.3799252792       -1.5716008111
 C          0.0106304302        3.8922014459       -1.9509051342
 C         -1.2337157555        3.3693531407       -1.5948055769
 C         -1.2556577200        2.2338127566       -0.7598344242
 C         -2.1336106618        1.2651990028       -0.1604208264
 C         -3.4969815837        1.0406947498       -0.2345003499
 C         -4.0417292710       -0.0759980768        0.3948919520
 N         -5.3937473787       -0.3690877595        0.2491069596
 C         -5.9103153805       -1.6165882825       -0.0549884087
 C         -5.2494997110       -2.8074503673       -0.3206502665
 C         -6.0136594394       -3.9157186282       -0.6403506169
 C         -7.4025986848       -3.8439402406       -0.7101235991
 C         -8.0654438143       -2.6520099377       -0.4838132641
 C         -7.3192653943       -1.5271105605       -0.1613511198
 C         -7.6611787781       -0.1550467169        0.0897405979
 C         -8.8650295425        0.5335466977        0.1348922083
 C         -8.8440408389        1.8832317117        0.4335293069
 C         -7.6461319447        2.5385936525        0.7080817059
 C         -6.4338318006        1.8723306182        0.6703641579
 C         -6.4437783581        0.5260902157        0.3347593004
 C         -3.2319721137       -0.9542373003        1.1601466156
 C         -1.8706071701       -0.7598926820        1.2474036114
 C         -1.3043964448        0.3106113694        0.5747324119
 N          0.0024209571        0.6772363196        0.4084743781
 C          0.0049065174        1.8074978700       -0.3796657287
 H          7.9041498971       -4.7234372325       -1.0411458411
 H          5.4639915581       -4.8348376702       -0.8484182645
 H          4.1457607850       -2.8487367910       -0.2375983328
 H          9.1034013716       -2.5944151750       -0.6595006225
 H          9.7898006836        0.0097971044       -0.1472894909
 H          9.7934876998        2.4212490093        0.4019737056
 H          7.7106864730        3.5766743184        0.9748600628
 H          5.5540430206        2.3855973102        0.9760925351
 H          3.7041727003       -1.7354027330        1.7561592391
 H          1.2568448844       -1.4187132770        1.8585061111
 H          4.1373255354        1.7064171848       -0.7774991690
 H          2.1615599761        3.8414394657       -1.9235136529
 H          0.0130168186        4.7625860852       -2.5937809370
 H         -2.1398254349        3.8227953985       -1.9639432272
 H         -4.1220968304        1.6834746770       -0.8355226168
 H         -4.1726186142       -2.8688374244       -0.2980159482
 H         -5.5206500356       -4.8538121778       -0.8470343568
 H         -7.9650997989       -4.7310482417       -0.9601740528
 H         -9.1401680340       -2.5914370646       -0.5632176442
 H         -9.7957041957        0.0212187832       -0.0561295183
 H         -9.7695477972        2.4383601561        0.4676391267
 H         -7.6631372289        3.5882782898        0.9599084658
 H         -5.5147813871        2.3851832191        0.9081338386
 H         -3.7037965389       -1.7590214585        1.7000973536
 H         -1.2595417450       -1.4337363580        1.8287030349
