  70
       -111.47737376
 C          8.0217109186       -2.7608834840       -2.2631294430
 C          6.6640689397       -2.8526137884       -2.5596794347
 C          5.7224899170       -2.1154591206       -1.8634518954
 C          6.1706101820       -1.2863442157       -0.8452799597
 C          7.5522759789       -1.1620020844       -0.5609769943
 C          8.4784984283       -1.9111170503       -1.2727390461
 C          7.6678703256       -0.1817824194        0.4824031520
 C          8.7449346148        0.3417396467        1.1835989875
 C          8.4987810227        1.2723282940        2.1760661906
 C          7.1986948037        1.6638519610        2.4859487768
 C          6.1093413143        1.1555612035        1.8003291606
 C          6.3515970455        0.2476860248        0.7795489243
 N          5.4563926157       -0.4287710942       -0.0289947151
 C          4.0731908111       -0.2773323889       -0.0176512777
 C          3.2547500728       -1.4353829360       -0.0142996676
 C          1.8806015531       -1.3251748434        0.0026218058
 C          1.3096017421       -0.0632132229        0.0005235086
 C          2.1398987894        1.1408710341       -0.0014571256
 C          3.5161022041        0.9989176196       -0.0048760177
 C          1.2601109745        2.2779972534       -0.0054005324
 C          1.2390796255        3.6874816837       -0.0018500498
 C         -0.0051892038        4.3205801743        0.0023051285
 C         -1.2477329188        3.6842483964        0.0047092755
 C         -1.2649226417        2.2747006296        0.0050185606
 C         -2.1416944378        1.1352958690       -0.0022716068
 C         -3.5174043565        0.9899205123       -0.0001927931
 C         -4.0714306946       -0.2877046887        0.0096576803
 N         -5.4545007442       -0.4405765329        0.0216844889
 C         -6.3503581869        0.2415815463       -0.7811369229
 C         -6.1082075783        1.1469269811       -1.8041547490
 C         -7.1983299908        1.6629053596       -2.4827042617
 C         -8.4992038408        1.2815214488       -2.1634465239
 C         -8.7455173872        0.3529491003       -1.1691116338
 C         -7.6675427271       -0.1787171878       -0.4753469056
 C         -7.5516362169       -1.1598290762        0.5672033860
 C         -8.4783848800       -1.9021146258        1.2854419636
 C         -8.0210194704       -2.7556952254        2.2722244516
 C         -6.6620309018       -2.8582573613        2.5585124225
 C         -5.7198411194       -2.1277861752        1.8560070566
 C         -6.1689416513       -1.2941399442        0.8420159452
 C         -3.2504013270       -1.4437200848        0.0040429036
 C         -1.8764513502       -1.3299992540       -0.0121644848
 C         -1.3084634026       -0.0666812112       -0.0069593203
 N          0.0000937442        0.3326467326       -0.0025366702
 C         -0.0016782400        1.7101361969       -0.0006101727
 H          8.7263048394       -3.3542674983       -2.8264974035
 H          6.3388808831       -3.5077453575       -3.3538609841
 H          4.6757617260       -2.1745531983       -2.1184144249
 H          9.5329157276       -1.8242784195       -1.0589523414
 H          9.7512185775        0.0217016056        0.9598082324
 H          9.3235324514        1.6940956167        2.7308901366
 H          7.0355319903        2.3751089616        3.2815934251
 H          5.1051056575        1.4481595705        2.0652370307
 H          3.7240875017       -2.4047607346        0.0297076046
 H          1.2635988395       -2.2107614321        0.0300103726
 H          4.1542944807        1.8686072387       -0.0460405590
 H          2.1459208192        4.2709854433       -0.0051064182
 H         -0.0066272635        5.4026712987        0.0036049675
 H         -2.1562262161        4.2652595614        0.0097746708
 H         -4.1578839158        1.8579133216        0.0422160324
 H         -5.1035528577        1.4316405606       -2.0758572444
 H         -7.0353478217        2.3724456963       -3.2799051854
 H         -9.3245473830        1.7094961862       -2.7125478411
 H         -9.7525935444        0.0407102313       -0.9382777618
 H         -9.5336348728       -1.8071558522        1.0792801889
 H         -8.7260392931       -3.3438310145        2.8405403118
 H         -6.3360545423       -3.5168804917        3.3494662378
 H         -4.6718109515       -2.1951770018        2.1034319303
 H         -3.7172353087       -2.4141499504       -0.0427564576
 H         -1.2572955323       -2.2140010044       -0.0411909021
