74
 energy: -116.127141025636 gnorm: 0.000099694841 xtb: 6.7.1 (edcfbbe)
C           -7.04809644959640        2.10188023160881        0.43352581649556
C           -6.15628674595695        1.34381973295685       -0.56782960445622
C           -6.70747798909008        1.50199256012122       -1.99743142227294
C           -6.16202461379478       -0.12973287071952       -0.20531946373203
C           -7.36000787574586       -0.83198997012025       -0.21847687590848
C           -7.42574527496736       -2.18011524538938        0.08212000881899
C           -6.26246757360705       -2.86016290525809        0.39531963604790
C           -5.05885531582692       -2.18661797728744        0.41901384095778
C           -4.99397636906389       -0.81874895895412        0.13713179714136
N           -3.76828492352337       -0.16745699902884        0.17651372256502
C           -2.61654006979232       -0.89369977659416        0.57621172342738
C           -2.40632832520658       -1.17279732439631        1.92405362502427
C           -1.28245910376204       -1.88050537703203        2.31364549373953
C           -0.38242488787659       -2.30449187332653        1.35557357139229
S            1.08418675251530       -3.22543441455625        1.84158133078881
O            1.09471230656840       -3.33198551644492        3.28635788671348
O            1.10024904083655       -4.46924414735384        1.09778506257561
C            2.45100009197143       -2.20826266995279        1.30556584720270
C            2.74345068117219       -1.06458547094800        2.04304479316850
C            3.77243899905913       -0.22861197678378        1.66070547937838
C            4.49841085331188       -0.56810994235417        0.52194331342146
C            4.17688275063847       -1.72222057879467       -0.24246917338153
C            3.14024660739403       -2.55082004038615        0.16176067542230
C            5.08926005123320       -1.74299578914904       -1.35021282432630
C            5.27964343615626       -2.61292215369106       -2.41786644791424
C            6.29035266187558       -2.33991823210967       -3.31719907078286
C            7.11258463299139       -1.22490638039735       -3.15720330613797
C            6.94246153641678       -0.34646413169622       -2.10454517519035
C            5.91539337930033       -0.60461177188783       -1.20694005353370
N            5.54279840307610        0.09137290748446       -0.07212513097853
C            6.16374658170842        1.26112460162359        0.40959599722406
C            6.64318897922438        1.30765545278101        1.71442794021393
C            7.25941428502838        2.45548851460767        2.17992870341156
C            7.40747269247344        3.55446012324377        1.34932281526810
C            6.93101972670633        3.50675161254901        0.04936544119561
C            6.30596095502029        2.36626819761382       -0.42275436085871
C           -0.57664411495041       -2.03259833763126        0.01373619360000
C           -1.69910919559285       -1.32624735186806       -0.37915405305648
C           -3.64193482961670        1.17776479469740       -0.14463111156937
C           -2.38773837201823        1.79159025568275       -0.07593270449750
C           -2.23069665726304        3.12470661750599       -0.39421423876788
C           -3.32755959953034        3.87405385806231       -0.77994253733532
C           -4.57215470509687        3.27353670600563       -0.82886689921254
C           -4.75906741889296        1.93362386966982       -0.51527813611195
H           -7.07197151387400        3.16374353989748        0.20506463442717
H           -8.06662994166362        1.72469831104478        0.40689187698046
H           -6.66153504411029        1.97610085816164        1.44354083418597
H           -6.07125682272210        0.96831593645589       -2.70142918595431
H           -6.73809259468063        2.54836134793662       -2.28777934089460
H           -7.71367911816125        1.09948250352885       -2.07213155969463
H           -8.27411415325877       -0.31665840048870       -0.47134246781138
H           -8.37480210049224       -2.69450657114110        0.06459477764477
H           -6.28707820003557       -3.91664052910976        0.61918275660159
H           -4.15496562186486       -2.72741310293514        0.65489922326799
H           -3.12564059672403       -0.83761166984798        2.65597734976028
H           -1.08888411919375       -2.11576409751768        3.34869310492833
H            2.15785458785624       -0.86070123151868        2.92532245558624
H            4.00170735131334        0.66186710160809        2.22446448615185
H            2.87067403312123       -3.44696792797608       -0.37408229032341
H            4.65208233639776       -3.48375961934934       -2.53155328272354
H            6.45608503060859       -3.00152475810510       -4.15428795040303
H            7.90316339997701       -1.04655129800501       -3.87097964165530
H            7.59259288580887        0.50582833982772       -1.98073288094303
H            6.54117936510496        0.44150103474432        2.35129618917324
H            7.63236187092220        2.48780608797051        3.19282545667273
H            7.89314898742204        4.44662364688249        1.71498663537302
H            7.04096819558975        4.36304283210290       -0.59932907384305
H            5.91844642110423        2.32880595352084       -1.42983550243648
H            0.14193748584352       -2.38678649102855       -0.70818665430664
H           -1.87318232321740       -1.10463490075357       -1.42123846096187
H           -1.52848005018943        1.21728659388590        0.23461970763806
H           -1.25064489001779        3.57511505048135       -0.33651912872625
H           -3.21889417826313        4.91785439375381       -1.03352450140931
H           -5.42134567658741        3.87326021385648       -1.11924469151470
