74
 energy: -116.024439873700 gnorm: 0.000037712440 xtb: 6.7.1 (edcfbbe)
C           -5.76124032592659        2.52876121786241        2.35471321970628
C           -5.53217617059806        1.99065580019726        0.92728340972349
C           -6.50873268939771        2.66849964455107       -0.05585707829147
C           -5.79771217440133        0.50277318789152        0.91605529332859
C           -7.04803378114578        0.02328787810268        1.28279099409176
C           -7.35261830490979       -1.32572262033142        1.24951604381921
C           -6.39615664346597       -2.23540130215593        0.81678500381383
C           -5.14845718418119       -1.79187581836232        0.44628627692478
C           -4.82070656486292       -0.42598732356783        0.51155288390485
N           -3.55600529150533       -0.01557385834758        0.15273673384275
C           -2.60464671385606       -0.97618695899550       -0.27375258522654
C           -2.02428155185689       -1.86910045836433        0.65296913426347
C           -1.06007901517706       -2.74786240819679        0.24218321301835
C           -0.66818042714520       -2.78634707194036       -1.10843160634887
S            0.79516295009712       -3.64195335490644       -1.55999524300953
O            0.95877638646571       -4.83104944859542       -0.73503722059954
O            0.80996068309474       -3.84611407437592       -3.00252000766487
C            2.04485704766011       -2.45654829711191       -1.12211190312740
C            2.71378290065761       -2.58487128182860        0.09857263508489
C            3.54927158746964       -1.57944649008233        0.55555885939471
C            3.67322584233290       -0.43204150338963       -0.22011169506788
C            3.00163508737132       -0.30392912579958       -1.47235933316509
C            2.17590643288967       -1.32326136680044       -1.91725316719590
C            3.38786946988604        0.96607174591511       -2.01410688587550
C            3.04927208743425        1.65492083937494       -3.17363295452279
C            3.59034480755015        2.91557738510974       -3.37797813826244
C            4.44355164368304        3.49394056330950       -2.44447986233084
C            4.79765756600561        2.82375079980946       -1.27920648082968
C            4.28042483677594        1.55254478847102       -1.08027209638630
N            4.44270509743305        0.69675412035090       -0.00713479262919
C            5.24910118694986        0.93730000801097        1.10912657327210
C            6.56995631114398        1.35859192119701        0.94315210432731
C            7.36148260982218        1.59977918378587        2.04884658487155
C            6.85304195498875        1.42376057419340        3.32759546149280
C            5.54141885950530        1.00321608308660        3.49492712215396
C            4.73964902257603        0.76082881177925        2.39694752311725
C           -1.25908166730345       -1.90795301973896       -2.03665525895876
C           -2.21178744676912       -1.01702934106393       -1.62797983288357
C           -3.18937168677962        1.31237865746254        0.17329082881784
C           -1.86262948657257        1.66957794560012       -0.13079459853850
C           -1.47486160837462        2.98826555053659       -0.15237793242120
C           -2.39865833335516        3.98500768873649        0.13735817445066
C           -3.69525240340268        3.63882805810938        0.47474766157741
C           -4.11622689089626        2.31669721162976        0.51175780932702
H           -5.08621841477519        2.03538589299316        3.05113000624515
H           -5.57821328182594        3.59787959474829        2.39639280540219
H           -6.78201252832516        2.34475806798224        2.67485076667481
H           -6.34186411405920        2.29385244910667       -1.06387697955482
H           -6.36362952542894        3.74434739886358       -0.05931443270352
H           -7.53782136223398        2.46259335307270        0.22180625642230
H           -7.81150715126436        0.71628896303237        1.59864168300757
H           -8.33327493037024       -1.66576679181412        1.54443518763454
H           -6.62729151819572       -3.28823264346462        0.76375682800073
H           -4.41007293063248       -2.49349802864685        0.09305129698706
H           -2.33358042089441       -1.82894072405900        1.68696898040491
H           -0.58271748637641       -3.43088223437233        0.92722772288779
H            2.57578256809575       -3.49799456700959        0.65523351373315
H            4.09453426364891       -1.69727228207103        1.47892919498350
H            1.65275424081510       -1.27407547499255       -2.85845311968944
H            2.37616608696038        1.21439582897142       -3.89303715270257
H            3.33868671793270        3.46310806213889       -4.27450349033652
H            4.83680840277849        4.48323830832057       -2.62338306808789
H            5.44472640766260        3.28802782278316       -0.55138631141075
H            6.97132800641596        1.46570989760992       -0.05327442394088
H            8.38475531852507        1.91715935119485        1.91296675287601
H            7.47588094078296        1.61193392658943        4.18875354765913
H            5.13910150838076        0.87090435941130        4.48837416487267
H            3.71092616000470        0.45889796018471        2.52307407774565
H           -0.94708799253735       -1.97736580536450       -3.06681213740414
H           -2.68271977824129       -0.34666844445399       -2.33183421696442
H           -1.14264487953128        0.89522141736083       -0.34155992935359
H           -0.45302408330990        3.24066560793991       -0.39164399791795
H           -2.10511602730738        5.02303508885362        0.11468346197209
H           -4.39175786950514        4.42550437627365        0.71771721019623
