  66
  -93.2959824170000       0.202589367963816      !
 C          6.4174295095        1.8292350504       -0.1618408867
 C          6.0893351568        0.5171439213        0.5617148853
 C          6.9380816365        0.4205640868        1.8276289752
 O          4.7091220692        0.5761843090        0.9193689608
 B          3.9961307269       -0.2077108210        0.0581584684
 C          2.4356436800       -0.2786459495        0.0334471212
 C          1.6625075320        0.5025019703        0.8942978435
 C          0.2842017154        0.4457999404        0.8719611782
 C         -0.3745346756       -0.4002594207       -0.0192034822
 C         -1.8428613548       -0.4948324406       -0.0405872776
 C         -2.6440699875        0.5934295479       -0.0194038865
 C         -2.1236209845        1.9629007620       -0.1647770202
 C         -1.1900260561        2.2780686191       -1.1502095974
 C         -0.7289834444        3.5729506097       -1.2896550496
 C         -1.1921078515        4.5736248251       -0.4509956357
 C         -2.1292459759        4.2732853516        0.5234102754
 C         -2.5973483984        2.9802747304        0.6615732233
 C         -4.1039964936        0.4946238200        0.1472520821
 C         -4.9514786939        1.2499578962       -0.6610308175
 C         -6.3226973888        1.1747275126       -0.5054238013
 C         -6.8686131048        0.3564321305        0.4694348995
 C         -6.0338715796       -0.3831326205        1.2912415015
 C         -4.6629282154       -0.3159449805        1.1333287792
 C         -2.3777187466       -1.8663560573       -0.0882302440
 C         -1.8393181719       -2.8534819551        0.7349363187
 C         -2.3229069725       -4.1473603074        0.6886317511
 C         -3.3401791787       -4.4793385898       -0.1905720889
 C         -3.8682185857       -3.5095813982       -1.0271140041
 C         -3.3922511551       -2.2134093586       -0.9780807350
 C          0.3894272436       -1.1988899099       -0.8695819721
 C          1.7674093837       -1.1311714808       -0.8466501378
 O          4.8027351631       -0.9236962121       -0.7799040152
 C          6.1607359522       -0.7393407103       -0.3822727918
 C          6.5868419028       -2.0171603800        0.3516562445
 C          7.0333010074       -0.5639250278       -1.6233634092
 H          6.1884311868        2.6575039200        0.5050113494
 H          7.4673452422        1.8751250580       -0.4351985157
 H          5.8000863039        1.9340773988       -1.0505938138
 H          6.8277647040        1.3408616989        2.3958840085
 H          7.9854435575        0.2901770956        1.5693271018
 H          6.6141436045       -0.4026648708        2.4561454896
 H          2.1653870062        1.1580820099        1.5893639062
 H         -0.2943568113        1.0504573545        1.5554711730
 H         -0.8354320207        1.5033046331       -1.8138459136
 H         -0.0066133291        3.8039710900       -2.0590149725
 H         -0.8281884282        5.5847365895       -0.5600642858
 H         -2.4984256296        5.0505115767        1.1769884048
 H         -3.3281309363        2.7468209357        1.4232878318
 H         -4.5262089181        1.8879212367       -1.4231826312
 H         -6.9684650523        1.7584061359       -1.1455996729
 H         -7.9402315038        0.3000439742        0.5925894174
 H         -6.4541087917       -1.0132074005        2.0617513597
 H         -4.0147641218       -0.8853146679        1.7832243537
 H         -1.0451465179       -2.5948368188        1.4211448071
 H         -1.9032240493       -4.9008909387        1.3394326892
 H         -3.7161982954       -5.4912035701       -0.2280312321
 H         -4.6532214387       -3.7660039965       -1.7237202310
 H         -3.7980077292       -1.4628832912       -1.6404832048
 H         -0.1105593187       -1.8647982294       -1.5595496056
 H          2.3514633844       -1.7453106490       -1.5157542041
 H          7.6292255632       -1.9684505811        0.6517446704
 H          5.9590570254       -2.1781847517        1.2244789196
 H          6.4506866411       -2.8621135642       -0.3195529134
 H          7.0245170531       -1.4897687283       -2.1932146433
 H          6.6533195876        0.2268044012       -2.2620764451
 H          8.0563440304       -0.3383232939       -1.3351672304
  66
  -93.2958869021000       0.183113785442959      !
 C          6.5483385469       -0.3776762364       -1.9756093590
 C          6.0765427893        0.4097220044       -0.7467015516
 C          6.8222224860        1.7409470428       -0.6901022920
 O          4.6813937824        0.6543762070       -0.9211994126
 B          3.9804278015       -0.2091407077       -0.1286356960
 C          2.4229368390       -0.3288400950       -0.1377034240
 C          1.7649982380       -1.2482955981        0.6805129124
 C          0.3875298748       -1.3297228936        0.7020860693
 C         -0.3849583823       -0.4744837387       -0.0823583271
 C         -1.8541788719       -0.5495844072       -0.0301288845
 C         -2.6270693560        0.5543653283        0.0710126170
 C         -2.0605032975        1.8932262383        0.3078231572
 C         -2.5214838362        2.9847548737       -0.4256067605
 C         -2.0040997221        4.2475447277       -0.2066575598
 C         -1.0295876443        4.4426671404        0.7577679649
 C         -0.5803066821        3.3675285751        1.5069807215
 C         -1.0909196660        2.1028859926        1.2864757639
 C         -4.0942649237        0.5093330539       -0.0432145652
 C         -4.7181497284       -0.2039994817       -1.0647346612
 C         -6.0959829468       -0.2198873119       -1.1675964391
 C         -6.8728423971        0.4750549399       -0.2549698626
 C         -6.2619480211        1.1977930994        0.7562900951
 C         -4.8838603162        1.2216711444        0.8576378248
 C         -2.4164374095       -1.9092007083       -0.0835631215
 C         -3.4169754421       -2.3120958618        0.7987404700
 C         -3.9211621569       -3.5974115729        0.7465949787
 C         -3.4353044183       -4.5008421691       -0.1845134024
 C         -2.4306835103       -4.1146422353       -1.0561118893
 C         -1.9189433782       -2.8319123557       -1.0017905082
 C          0.2635429465        0.4284686420       -0.9236242079
 C          1.6411485724        0.4956318767       -0.9489644665
 O          4.7950137012       -0.9376624470        0.6912283395
 C          6.1262447659       -0.4357301025        0.5780378778
 C          6.3834628613        0.4220113889        1.8237055903
 C          7.1117190306       -1.6018443140        0.5628282383
 H          6.3277272921        0.2070410564       -2.8657430031
 H          7.6166156191       -0.5677599552       -1.9335441628
 H          6.0089957027       -1.3184556221       -2.0501190861
 H          6.7383595156        2.2324973441       -1.6563099549
 H          7.8733667164        1.5743292280       -0.4704693996
 H          6.3949479789        2.3991294132        0.0594737024
 H          2.3563885102       -1.9002604837        1.3060383885
 H         -0.1052147251       -2.0445021625        1.3469699073
 H         -3.2803534432        2.8330820660       -1.1804582232
 H         -2.3627444742        5.0831790865       -0.7901963349
 H         -0.6253854444        5.4296909099        0.9284363083
 H          0.1707928381        3.5158805205        2.2691229619
 H         -0.7466003937        1.2698217465        1.8812151379
 H         -4.1154415366       -0.7378708065       -1.7847257587
 H         -6.5671752019       -0.7750508185       -1.9656618383
 H         -7.9498054520        0.4582018592       -0.3351199828
 H         -6.8620977185        1.7465324014        1.4677476164
 H         -4.4076984134        1.7845177204        1.6483598817
 H         -3.7900229060       -1.6144115597        1.5340964647
 H         -4.6956490127       -3.8974293238        1.4375708184
 H         -3.8342916616       -5.5036985942       -0.2266763319
 H         -2.0436083278       -4.8169079084       -1.7802780682
 H         -1.1352574991       -2.5304784693       -1.6825018419
 H         -0.3228711363        1.0737508428       -1.5618432601
 H          2.1365346210        1.1991585007       -1.6011962884
 H          7.3969942593        0.8114087229        1.8305106585
 H          5.6722606065        1.2429950559        1.8682697660
 H          6.2361464929       -0.1975612315        2.7054550881
 H          7.0760182933       -2.1050726020        1.5258408975
 H          6.8535746635       -2.3250948027       -0.2037948569
 H          8.1214777547       -1.2376156445        0.3937631336
  66
  -93.2958100713000       0.168815395195788      !
 C          6.2215889268        1.9966047144       -0.1113714154
 C          6.0301180995        0.6246916516        0.5480464296
 C          6.9465857846        0.5250138965        1.7654001018
 O          4.6688927769        0.5585452698        0.9704407796
 B          3.9729438226       -0.2246067909        0.0941640620
 C          2.4175756979       -0.3692638831        0.1090762314
 C          1.6378301102        0.3810005239        0.9912984047
 C          0.2606266873        0.3104571105        0.9683471161
 C         -0.3898939272       -0.5194774793        0.0562985474
 C         -1.8597925947       -0.5799481952        0.0002863590
 C         -2.6186770335        0.5386959035       -0.0123801817
 C         -2.0318886721        1.8825185791       -0.1532702479
 C         -1.0672718818        2.1478600311       -1.1233271003
 C         -0.5343967547        3.4157996386       -1.2530773735
 C         -0.9563969996        4.4392276775       -0.4202808478
 C         -1.9262048900        4.1897166949        0.5362544813
 C         -2.4657970573        2.9237345971        0.6647096983
 C         -4.0849994811        0.5079362107        0.1130373497
 C         -4.8717794903        1.3045734071       -0.7169476807
 C         -6.2486259487        1.2983479390       -0.5982621700
 C         -6.8607919226        0.5085016505        0.3605928073
 C         -6.0864763182       -0.2723747287        1.2031686280
 C         -4.7101524832       -0.2740225679        1.0824478568
 C         -2.4374287478       -1.9324873706       -0.0526752440
 C         -1.9412870862       -2.9352285363        0.7783009324
 C         -2.4693029831       -4.2116647313        0.7312500253
 C         -3.4894778437       -4.5109665750       -0.1563139523
 C         -3.9740924111       -3.5266987234       -1.0022538146
 C         -3.4532990567       -2.2480092751       -0.9531359085
 C          0.3805083119       -1.3068777258       -0.7977970069
 C          1.7581702245       -1.2231876684       -0.7761324867
 O          4.7880106419       -0.8345570600       -0.8158922375
 C          6.1470629521       -0.5682611236       -0.4707852629
 C          6.7047579941       -1.8474073193        0.1657587294
 C          6.9391956718       -0.2559377303       -1.7386767351
 H          7.2492798642        2.1396450859       -0.4312203411
 H          5.5521796640        2.1025773721       -0.9614371174
 H          5.9658522832        2.7658802543        0.6137893698
 H          6.7919886004        1.3987016474        2.3937723801
 H          7.9865600546        0.4971879505        1.4516877760
 H          6.7217858575       -0.3572163427        2.3559567407
 H          2.1347782432        1.0307939019        1.6959106292
 H         -0.3243639041        0.8986837384        1.6606537009
 H         -0.7435075285        1.3557216798       -1.7821367650
 H          0.2130752901        3.6072503598       -2.0092053245
 H         -0.5346322898        5.4286106168       -0.5198179901
 H         -2.2638622384        4.9854660220        1.1845418028
 H         -3.2207276617        2.7294837138        1.4137797923
 H         -4.3946836581        1.9204645077       -1.4664605133
 H         -6.8467996464        1.9137874619       -1.2547370995
 H         -7.9367868129        0.5058263592        0.4547278099
 H         -6.5584486199       -0.8809825933        1.9608510691
 H         -4.1090671848       -0.8749559690        1.7489587368
 H         -1.1454817582       -2.7018573773        1.4716376301
 H         -2.0828810390       -4.9770913722        1.3887453552
 H         -3.9013393384       -5.5088117975       -0.1931624228
 H         -4.7607277302       -3.7580411601       -1.7058092746
 H         -3.8255009162       -1.4866815803       -1.6228288474
 H         -0.1136989978       -1.9676369155       -1.4968949328
 H          2.3477848210       -1.8188570170       -1.4570107387
 H          7.7531660493       -1.7323950835        0.4238064916
 H          6.1330013179       -2.1077069984        1.0530281518
 H          6.6033888542       -2.6607344995       -0.5492256804
 H          6.9687343594       -1.1455157947       -2.3629948352
 H          6.4698356652        0.5388632464       -2.3093467816
 H          7.9565052497        0.0301099633       -1.4858017640
  66
  -93.2957270259000       0.154613362924219      !
 C          6.4404808852        1.1176204440        1.4437169400
 C          6.1364906441       -0.1962887528        0.7126250135
 C          7.0793579945       -1.2834856103        1.2217013594
 O          4.7890826959       -0.5451073216        1.0299534260
 B          3.9907170588       -0.2051249895       -0.0257179747
 C          2.4302003217       -0.2771748946        0.0081586441
 C          1.7639871958       -0.9340527332        1.0437347031
 C          0.3863871171       -1.0093102137        1.0740306873
 C         -0.3780012325       -0.3995516153        0.0806521577
 C         -1.8472461370       -0.4905956112        0.1185435053
 C         -2.6438680180        0.5847962575       -0.0665074380
 C         -2.1127119255        1.9559931446       -0.1398085407
 C         -2.5894588895        2.8367886087       -1.1090514796
 C         -2.1093774620        4.1308111509       -1.1802437321
 C         -1.1563669268        4.5702456101       -0.2764745844
 C         -0.6900503421        3.7081796529        0.7025363638
 C         -1.1634320568        2.4120704188        0.7728056028
 C         -4.1054379642        0.4705651485       -0.2075235011
 C         -4.6756220982       -0.4753891571       -1.0569656611
 C         -6.0482087491       -0.5589994565       -1.1916213452
 C         -6.8730427833        0.2989276419       -0.4825651501
 C         -6.3157180453        1.2513244291        0.3543517336
 C         -4.9428956898        1.3423992177        0.4856650964
 C         -2.3795838706       -1.8403239917        0.3683089601
 C         -3.4045287911       -2.0561978552        1.2872748545
 C         -3.8797083084       -3.3326838313        1.5195267973
 C         -3.3402355101       -4.4131186835        0.8407713205
 C         -2.3111902435       -4.2108586952       -0.0638176269
 C         -1.8285643287       -2.9363547615       -0.2931967314
 C          0.2777410083        0.2552049943       -0.9604523285
 C          1.6561562221        0.3063629725       -0.9963211970
 O          4.7131621802        0.2016587572       -1.1114735087
 C          6.0977727746       -0.0271453589       -0.8486417816
 C          6.4859892482       -1.3106064103       -1.5936628225
 C          6.9212105431        1.1368845568       -1.3935636619
 H          6.2750224559        0.9669947709        2.5081166145
 H          7.4697131723        1.4254328206        1.2853793227
 H          5.7652526861        1.9003315971        1.1063725395
 H          7.0457536655       -1.2976029040        2.3084270176
 H          8.0975153126       -1.0757537632        0.9035960857
 H          6.7800082457       -2.2631040431        0.8632779354
 H          2.3489178989       -1.3922490833        1.8272755272
 H         -0.1127654859       -1.5281180999        1.8810237175
 H         -3.3320769932        2.4946165536       -1.8162903408
 H         -2.4812997372        4.8001772574       -1.9425985884
 H         -0.7825642314        5.5821645460       -0.3314725991
 H          0.0448504057        4.0488478807        1.4174208599
 H         -0.8061701453        1.7479757221        1.5458088260
 H         -4.0350704772       -1.1386516353       -1.6195414663
 H         -6.4774957280       -1.2956424918       -1.8551955349
 H         -7.9459278474        0.2292915202       -0.5862952281
 H         -6.9537713423        1.9274399563        0.9050923327
 H         -4.5083254307        2.0861843179        1.1388572007
 H         -3.8200390840       -1.2181314504        1.8272962464
 H         -4.6738123483       -3.4864902217        2.2357705020
 H         -3.7164380965       -5.4095294904        1.0205537369
 H         -1.8816779354       -5.0504999805       -0.5911168099
 H         -1.0254469893       -2.7787699155       -0.9993642261
 H         -0.3037010819        0.7112138011       -1.7489881593
 H          2.1574390462        0.8057182128       -1.8119374247
 H          7.5441640508       -1.5259582095       -1.4788365525
 H          5.8972017824       -2.1489710401       -1.2291179465
 H          6.2631990688       -1.1776953788       -2.6500224559
 H          6.8424896829        1.1466968908       -2.4778891168
 H          6.5528101051        2.0872784220       -1.0211886085
 H          7.9656761943        1.0187038151       -1.1178073124
  66
  -93.2957146903000       0.152608237684753      !
 C          6.5821709758        1.6571319247       -0.1801241073
 C          6.1246539926        0.4171448520        0.5981348247
 C          6.9029681168        0.3349743185        1.9093174623
 O          4.7363442853        0.5920920333        0.8803668751
 B          4.0116573974       -0.1832762907        0.0210378298
 C          2.4513129705       -0.1850941932       -0.0547121488
 C          1.6799623240        0.6129618356        0.7920922605
 C          0.3011906215        0.5653293937        0.7647740261
 C         -0.3599499776       -0.2878062084       -0.1181081286
 C         -1.8251531298       -0.4175767925       -0.1028737913
 C         -2.6621959115        0.6420867161       -0.0381065620
 C         -2.2027125629        2.0304215085       -0.1986548331
 C         -1.3059623076        2.3799127393       -1.2068282333
 C         -0.9086871636        3.6933991660       -1.3668293504
 C         -1.3995151229        4.6793148030       -0.5263719439
 C         -2.2985836704        4.3443259826        0.4723887861
 C         -2.7026868923        3.0323860322        0.6316364379
 C         -4.1074817444        0.4816557109        0.1971676462
 C         -5.0278689652        1.1992088913       -0.5641049620
 C         -6.3846713849        1.0615149162       -0.3392771741
 C         -6.8431240203        0.2175419128        0.6585018610
 C         -5.9353555242       -0.4846296286        1.4343350818
 C         -4.5788017431       -0.3546602831        1.2074197997
 C         -2.3194810655       -1.8049305845       -0.1468500855
 C         -1.7222850050       -2.7846967271        0.6441521169
 C         -2.1652795098       -4.0928499471        0.5960056381
 C         -3.2012036525       -4.4463834593       -0.2525382699
 C         -3.7893133251       -3.4832914280       -1.0559588638
 C         -3.3533720933       -2.1731210169       -1.0052762315
 C          0.4024541550       -1.0836979798       -0.9729884483
 C          1.7804353266       -1.0268677172       -0.9433158048
 O          4.8056086673       -0.9916905978       -0.7427178047
 C          6.1485546666       -0.8931260442       -0.2705180213
 C          6.4188093560       -2.1544765064        0.5600137057
 C          7.1071256673       -0.8632211708       -1.4584658067
 H          6.0201642882        1.7491287852       -1.1061735987
 H          6.3794344029        2.5383256793        0.4242795401
 H          7.6452768096        1.6138452065       -0.3970483685
 H          6.8356054052        1.2928171825        2.4192470975
 H          7.9484900067        0.1140123002        1.7124271194
 H          6.4889183530       -0.4241995622        2.5649773734
 H          2.1843775052        1.2666193880        1.4879347064
 H         -0.2758823712        1.1750364128        1.4450691781
 H         -0.9314213672        1.6166440051       -1.8728456729
 H         -0.2155506627        3.9508440167       -2.1544669328
 H         -1.0867054583        5.7054227965       -0.6526454370
 H         -2.6882968916        5.1093871537        1.1284026303
 H         -3.4033771471        2.7724697420        1.4127425027
 H         -4.6712700087        1.8570234176       -1.3443754904
 H         -7.0880083612        1.6158263268       -0.9438655555
 H         -7.9034774036        0.1116054031        0.8347428612
 H         -6.2867462119       -1.1347940281        2.2224194846
 H         -3.8733149379       -0.8943181140        1.8219783809
 H         -0.9137443311       -2.5096297467        1.3067478988
 H         -1.6986762994       -4.8407400136        1.2208386811
 H         -3.5448239534       -5.4696170674       -0.2921850249
 H         -4.5895935316       -3.7557823917       -1.7286913589
 H         -3.8056116799       -1.4277975700       -1.6430279503
 H         -0.0987473513       -1.7476348782       -1.6639051098
 H          2.3630960250       -1.6480973827       -1.6070027897
 H          7.4411629016       -2.1737112962        0.9252613926
 H          5.7269007677       -2.2092891961        1.3968785378
 H          6.2514725867       -3.0247697752       -0.0705125841
 H          7.0540517520       -1.8172510386       -1.9772379143
 H          6.8374128684       -0.0826535076       -2.1624247918
 H          8.1260101344       -0.7063377951       -1.1147660994
  66
  -93.2956213812000       0.138259850788465      !
 C          6.9515270943        1.2805012985        1.2351142562
 C          6.1020607064        0.0686660939        0.8618564927
 C          6.4577610146       -1.1012626770        1.7881710282
 O          4.7220751113        0.3643070663        1.0794196898
 B          3.9942786346       -0.1897720809        0.0644957984
 C          2.4328111973       -0.2488006597        0.0383535991
 C          1.6606537358        0.5369818225        0.8953817190
 C          0.2818179438        0.4834465053        0.8704167020
 C         -0.3754824259       -0.3785652132       -0.0052835852
 C         -1.8444608467       -0.4842459747       -0.0143935337
 C         -2.6501546773        0.5983142447       -0.0710514311
 C         -2.1320557916        1.9561495763       -0.3058757442
 C         -1.1837238197        2.2067918668       -1.2956790597
 C         -0.7246723254        3.4910583239       -1.5170277936
 C         -1.2043592446        4.5453275742       -0.7571284338
 C         -2.1561823409        4.3088029298        0.2207369932
 C         -2.6218818543        3.0263876287        0.4407308140
 C         -4.1107175594        0.5050584665        0.0957242536
 C         -4.9563366490        1.1878713476       -0.7763731529
 C         -6.3283100100        1.1150926174       -0.6258398846
 C         -6.8765839318        0.3721434096        0.4064098439
 C         -6.0436662312       -0.2933233250        1.2910104763
 C         -4.6718572812       -0.2286749373        1.1388501396
 C         -2.3640173375       -1.8603321427        0.0517909983
 C         -1.7986802976       -2.7711645622        0.9425573010
 C         -2.2677080594       -4.0692292443        1.0123830130
 C         -3.2971793413       -4.4827465135        0.1832529296
 C         -3.8506295377       -3.5909660267       -0.7209442654
 C         -3.3892638791       -2.2902689214       -0.7881688237
 C          0.3869493651       -1.1845137114       -0.8490342539
 C          1.7645367083       -1.1060165407       -0.8370658670
 O          4.7882470324       -0.6991995445       -0.9241253887
 C          6.1409887736       -0.3291018437       -0.6568855959
 C          7.0668317207       -1.4938583273       -0.9974584911
 C          6.4674114990        0.8585210189       -1.5713043702
 H          7.9931370634        1.0996266686        0.9837014217
 H          6.6055940365        2.1747644033        0.7269264356
 H          6.8724013553        1.4494821462        2.3062074698
 H          6.2346140330       -0.8114227192        2.8124818699
 H          7.5109342833       -1.3549500918        1.7131297515
 H          5.8509548389       -1.9703213144        1.5454499544
 H          2.1630561118        1.1959279907        1.5876996601
 H         -0.2984659401        1.0989893686        1.5429150489
 H         -0.8164180289        1.3906744119       -1.8999576748
 H          0.0094229719        3.6711402623       -2.2889567397
 H         -0.8423338310        5.5481628264       -0.9303409478
 H         -2.5386584176        5.1277608412        0.8127843771
 H         -3.3638844981        2.8431676877        1.2053085384
 H         -4.5287947557        1.7669357716       -1.5830098062
 H         -6.9728073020        1.6410943636       -1.3154774992
 H         -7.9487962645        0.3166267797        0.5245639906
 H         -6.4660560576       -0.8644228237        2.1050497001
 H         -4.0250142056       -0.7410272146        1.8359248329
 H         -0.9957658131       -2.4484481285        1.5904319685
 H         -1.8276922073       -4.7618299924        1.7153709474
 H         -3.6627883902       -5.4976914745        0.2372482724
 H         -4.6448612408       -3.9122121614       -1.3791987265
 H         -3.8151365880       -1.6018795836       -1.5032586222
 H         -0.1139130568       -1.8623668905       -1.5266954216
 H          2.3478294512       -1.7197968801       -1.5071945750
 H          8.0876580909       -1.2583221220       -0.7086902262
 H          6.7504551302       -2.4056158943       -0.5011262918
 H          7.0355579889       -1.6661701239       -2.0705083351
 H          6.2979222506        0.5579368194       -2.6027615889
 H          5.8066556487        1.6937758859       -1.3521016342
 H          7.5021224761        1.1679031880       -1.4580194366
