  62
  -94.7570096373000       0.278683031340545      !
 C         -7.9317269039       -2.9966634030        0.2762524565
 C         -6.9381189711       -2.9448045836        1.2432357564
 C         -5.9272382151       -2.0092065379        1.1574017363
 C         -5.8985425526       -1.1086750342        0.0904511441
 N         -4.8739016051       -0.1654428113       -0.0064643608
 C         -5.0470158731        1.1880927035       -0.2493578986
 C         -6.2185896151        1.9147298498       -0.3979538857
 C         -6.1098957863        3.2814193032       -0.6035788966
 C         -4.8734332806        3.9112305584       -0.6496394347
 C         -3.7003560756        3.1914642857       -0.4709404178
 C         -3.7855768091        1.8263759772       -0.2640681681
 C         -2.7998985702        0.7987285796       -0.0199221496
 C         -1.4370902093        0.8185456158        0.0433380039
 C         -0.7012496767       -0.4010270053        0.2488119583
 C          0.7045396715       -0.4097583709        0.2747665957
 C          1.4695114209       -1.6332442932        0.1949448625
 C          2.8266511686       -1.6609083864        0.1033206251
 C          3.5301970213       -0.4426663088        0.1025539899
 C          2.8239991847        0.7841220625        0.2888234477
 C          1.4624627102        0.8112676039        0.3707668880
 C          3.8344004296        1.8154115059        0.3471065890
 C          3.7772672745        3.1901146882        0.4897575163
 C          4.9618805500        3.9123757019        0.4545064824
 C          6.1794333798        3.2743467980        0.2599108345
 C          6.2601274475        1.8978379824        0.1161154985
 C          5.0818771219        1.1699847998        0.1834890038
 N          4.8774059866       -0.1938863970        0.0416630385
 C          5.8691328936       -1.1447606267       -0.2028171067
 C          5.6999391647       -2.0830560393       -1.2239922700
 C          6.6788529674       -3.0248483761       -1.4654494667
 C          7.8367986680       -3.0461814996       -0.7010299125
 C          8.0065565304       -2.1164819850        0.3148614485
 C          7.0324744512       -1.1723630398        0.5694722296
 C         -1.4846076468       -1.6087200768        0.3740523873
 C         -2.8445217037       -1.6282617262        0.3225251721
 C         -3.5330947782       -0.4163586342        0.1384183190
 C         -6.8972426524       -1.1656959801       -0.8841599116
 C         -7.9053151474       -2.1030527609       -0.7848350636
 H         -8.7206108637       -3.7293166619        0.3481603697
 H         -6.9573748436       -3.6345703621        2.0738954300
 H         -5.1672799572       -1.9487228027        1.9219511352
 H         -7.1860318893        1.4400599369       -0.3419277386
 H         -7.0086879935        3.8672323925       -0.7265007149
 H         -4.8263358898        4.9770000606       -0.8155707110
 H         -2.7408399708        3.6854325611       -0.4884103254
 H         -0.9157675414        1.7459366837       -0.1225209310
 H          0.9441309744       -2.5731535525        0.1803567338
 H          3.3573726426       -2.5996417358        0.0447848529
 H          0.9621464021        1.7476232284        0.5509633047
 H          2.8294441951        3.6895973976        0.6204781743
 H          4.9369435633        4.9858126055        0.5669571723
 H          7.0848350704        3.8611006351        0.2145854811
 H          7.2099322864        1.4166147064       -0.0583953772
 H          4.8095942094       -2.0459137503       -1.8335582315
 H          6.5436520769       -3.7430686485       -2.2606553927
 H          8.6008749708       -3.7830267889       -0.8950274316
 H          8.9020663158       -2.1348630696        0.9183953135
 H          7.1490939626       -0.4690031883        1.3801086666
 H         -0.9731794606       -2.5429679359        0.5342484181
 H         -3.3853940834       -2.5590726642        0.4073600356
 H         -6.8568393002       -0.4902177253       -1.7255424375
 H         -8.6712770060       -2.1451183201       -1.5449752089
  62
  -94.7566895406000       0.198611443515251      !
 C         -7.9174224984       -3.0190024064        0.2648922599
 C         -6.8148347194       -3.2389302009       -0.5484781063
 C         -5.8101631144       -2.2968002336       -0.6334870412
 C         -5.8983112392       -1.1137315886        0.1034585549
 N         -4.8828787594       -0.1593127430        0.0231693101
 C         -5.0689723180        1.1974858276       -0.1911326506
 C         -6.2429657000        1.9043301526       -0.4030587618
 C         -6.1443382155        3.2684114371       -0.6304629565
 C         -4.9142351804        3.9115195958       -0.6570380890
 C         -3.7353802908        3.2014556963       -0.4771716804
 C         -3.8103755779        1.8388783374       -0.2507580855
 C         -2.8133115101        0.8108212135       -0.0608062462
 C         -1.4499882824        0.8391205714       -0.0134729049
 C         -0.7052118771       -0.3756203315        0.1878490489
 C          0.7011443223       -0.3852117745        0.1833902222
 C          1.4599494058       -1.6139193163        0.1278168361
 C          2.8189686663       -1.6523171192        0.0663073662
 C          3.5315553959       -0.4397905438        0.0624617467
 C          2.8270225762        0.7961144112        0.1863391669
 C          1.4642607384        0.8335720812        0.2376874662
 C          3.8400654482        1.8245241535        0.2419291602
 C          3.7851017011        3.2034852605        0.3369012525
 C          4.9743084047        3.9188010775        0.3245428720
 C          6.1946845730        3.2690802474        0.1993732801
 C          6.2729745150        1.8881348115        0.1028551275
 C          5.0887451645        1.1681871567        0.1469438748
 N          4.8818181936       -0.1988515542        0.0420814565
 C          5.8803025889       -1.1602283583       -0.1207300170
 C          5.7569503798       -2.1375331825       -1.1113646082
 C          6.7445137111       -3.0879253078       -1.2702895241
 C          7.8661041967       -3.0792275308       -0.4532451530
 C          7.9902246569       -2.1107780246        0.5326635979
 C          7.0066825005       -1.1581542019        0.7052389565
 C         -1.4820421713       -1.5757491208        0.3991649724
 C         -2.8423394720       -1.6027235560        0.3682883985
 C         -3.5365857548       -0.4099283539        0.0987755762
 C         -7.0065786746       -0.8968158816        0.9253666931
 C         -8.0064998619       -1.8451316804        0.9991182016
 H         -8.7012274492       -3.7580005180        0.3269930908
 H         -6.7431699569       -4.1488463598       -1.1257762196
 H         -4.9630539993       -2.4526538317       -1.2845541962
 H         -7.2033427455        1.4123256660       -0.4067031031
 H         -7.0456519662        3.8401275464       -0.7942632604
 H         -4.8752317677        4.9759042751       -0.8333263696
 H         -2.7786824953        3.6993916280       -0.5191878222
 H         -0.9383480718        1.7746507028       -0.1612636584
 H          0.9270733899       -2.5497679985        0.1085932286
 H          3.3428576280       -2.5961086769        0.0325127250
 H          0.9687387074        1.7805767385        0.3676885442
 H          2.8357141737        3.7111521824        0.4137124553
 H          4.9511935680        4.9954169374        0.4015438615
 H          7.1047970133        3.8496708804        0.1730580321
 H          7.2263682319        1.3975673324       -0.0180501341
 H          4.8964022652       -2.1241766566       -1.7632649314
 H          6.6449063708       -3.8367566466       -2.0420689062
 H          8.6368571713       -3.8232401657       -0.5824717308
 H          8.8566241220       -2.1055069021        1.1774004026
 H          7.0863535131       -0.4243539250        1.4931296253
 H         -0.9640684180       -2.4891365739        0.6398296372
 H         -3.3814591514       -2.5168160865        0.5690348878
 H         -7.0588037306        0.0032225418        1.5194053761
 H         -8.8578024889       -1.6737297676        1.6411661794
  62
  -94.7566239485000       0.185293517529093      !
 C         -7.9211734989       -3.0009287854        0.4807478385
 C         -7.9615020634       -2.0986491159       -0.5726964291
 C         -6.9602920070       -1.1619917125       -0.7293615006
 C         -5.9004743280       -1.1141098396        0.1791995410
 N         -4.8846534649       -0.1689993466        0.0266582554
 C         -5.0751812200        1.1872770388       -0.1881853705
 C         -6.2552042370        1.9120367628       -0.2590606393
 C         -6.1620708571        3.2821369348       -0.4509513791
 C         -4.9320961497        3.9167433938       -0.5584522902
 C         -3.7487844582        3.1984655817       -0.4570444773
 C         -3.8185325126        1.8302441944       -0.2653693141
 C         -2.8178216273        0.8036107240       -0.0882997940
 C         -1.4538927737        0.8293918746       -0.0933452762
 C         -0.7035144025       -0.3880502394        0.0622793732
 C          0.7031140240       -0.3928442332        0.0436545641
 C          1.4640371610       -1.6116804288       -0.1075504153
 C          2.8239296133       -1.6453139244       -0.1492233751
 C          3.5355064132       -0.4401591659       -0.0116841161
 C          2.8257187995        0.7921375347        0.1158021910
 C          1.4619141480        0.8259152761        0.1415074000
 C          3.8341042854        1.8250247910        0.1735972001
 C          3.7758322667        3.1998481905        0.3153124686
 C          4.9646394590        3.9146778291        0.3603707565
 C          6.1895741917        3.2657010488        0.2840953815
 C          6.2713749407        1.8890131611        0.1415905409
 C          5.0850618434        1.1751165522        0.0652806491
 N          4.8838753707       -0.1918038625       -0.0464514631
 C          5.8910519766       -1.1528467927       -0.1498314686
 C          6.9292164648       -0.9882281688       -1.0695841004
 C          7.9198647388       -1.9435854372       -1.1697821211
 C          7.8906445263       -3.0732523169       -0.3648044463
 C          6.8579751592       -3.2410633862        0.5466454620
 C          5.8635962017       -2.2908438006        0.6590555681
 C         -1.4740546198       -1.6020090435        0.2081598318
 C         -2.8348477855       -1.6279381489        0.2247193484
 C         -3.5371593679       -0.4168077968        0.0937743575
 C         -5.8614547739       -2.0241628234        1.2380168668
 C         -6.8664666766       -2.9589304931        1.3814363798
 H         -8.7051132827       -3.7330081922        0.5976044551
 H         -8.7746881524       -2.1338161565       -1.2823687253
 H         -6.9730254046       -0.4799863446       -1.5662675533
 H         -7.2167878502        1.4337082215       -0.1548078298
 H         -7.0680370190        3.8661845871       -0.5149534799
 H         -4.8972845669        4.9848304029       -0.7117748808
 H         -2.7931522332        3.6960199005       -0.5213821854
 H         -0.9466027748        1.7618400864       -0.2729890747
 H          0.9314936226       -2.5373927647       -0.2482064909
 H          3.3481268916       -2.5760634530       -0.3082659750
 H          0.9612921776        1.7711338309        0.2632854668
 H          2.8248252591        3.7039368100        0.3954524937
 H          4.9386209001        4.9886445562        0.4675073602
 H          7.1004557523        3.8429522976        0.3407377086
 H          7.2295289763        1.3940316693        0.1054271429
 H          6.9331928236       -0.1237953909       -1.7162531240
 H          8.7164329168       -1.8126630997       -1.8871086300
 H          8.6668537492       -3.8182496057       -0.4481849986
 H          6.8326482202       -4.1168820592        1.1776808314
 H          5.0733703372       -2.4048789245        1.3857594486
 H         -0.9493297314       -2.5341850926        0.3341160870
 H         -3.3669107956       -2.5624570833        0.3243528523
 H         -5.0537078983       -1.9707569728        1.9524061550
 H         -6.8327626305       -3.6561050805        2.2055741565
  62
  -94.7562711482000       0.127562914695493      !
 C         -7.8481985994       -3.0780037013        0.3508146919
 C         -7.8086097692       -2.2356908390       -0.7513112527
 C         -6.8302508318       -1.2682018793       -0.8564562220
 C         -5.8735606482       -1.1310513519        0.1515856353
 N         -4.8710223173       -0.1648836273        0.0431579618
 C         -5.0689381409        1.1722130641       -0.2603318491
 C         -6.2545846023        1.8612575313       -0.4645528279
 C         -6.1746569578        3.2209507488       -0.7251726568
 C         -4.9528822311        3.8782233887       -0.7708568213
 C         -3.7660159087        3.1958910654       -0.5398466123
 C         -3.8218407491        1.8384641075       -0.2779430630
 C         -2.8172376199        0.8430775701        0.0185024950
 C         -1.4544014417        0.8880341795        0.0846081234
 C         -0.7025901731       -0.3156633284        0.3116345737
 C          0.7040562902       -0.3275217366        0.2692994823
 C          1.4400253378       -1.5567747639        0.0907019888
 C          2.7948031901       -1.6058939994       -0.0227148908
 C          3.5235902305       -0.4076456183        0.0758581851
 C          2.8395091118        0.8334580701        0.2519497952
 C          1.4776528155        0.8830147267        0.3413837747
 C          3.8665818278        1.8501904579        0.2599873096
 C          3.8419484216        3.2240072692        0.4224059248
 C          5.0433522991        3.9188027316        0.3976704568
 C          6.2497290982        3.2527726404        0.2284610584
 C          6.2988570219        1.8768545083        0.0653563667
 C          5.0984977649        1.1829882271        0.0654506296
 N          4.8701703303       -0.1790362491       -0.0414092632
 C          5.8467997280       -1.1609052734       -0.2202168830
 C          6.8105303013       -1.0238893610       -1.2215502496
 C          7.7585927014       -2.0099700654       -1.4048255912
 C          7.7604210005       -3.1415327049       -0.6017665566
 C          6.8046088352       -3.2789277580        0.3948459145
 C          5.8531957615       -2.2986282739        0.5897018008
 C         -1.4646081056       -1.5252581785        0.5220885346
 C         -2.8238398033       -1.5690269530        0.4757775838
 C         -3.5282789754       -0.3806532561        0.2177969112
 C         -5.9165931035       -1.9782206473        1.2609400794
 C         -6.8989451522       -2.9430815453        1.3537667456
 H         -8.6129425796       -3.8354563353        0.4265881229
 H         -8.5399317158       -2.3426781922       -1.5386899141
 H         -6.7784002232       -0.6314319901       -1.7268556529
 H         -7.2103503511        1.3629826599       -0.4108984234
 H         -7.0842023321        3.7781192810       -0.8932985963
 H         -4.9276793211        4.9367514326       -0.9815120842
 H         -2.8188440556        3.7129994509       -0.5616652254
 H         -0.9443094758        1.8168806311       -0.1082477962
 H          0.8880007938       -2.4743278311       -0.0258344938
 H          3.3003531073       -2.5414297713       -0.2103627980
 H          0.9885004405        1.8305586681        0.4934205434
 H          2.9073814088        3.7428354860        0.5719202971
 H          5.0426636460        4.9912719120        0.5218764602
 H          7.1714601266        3.8153404704        0.2282805462
 H          7.2432030325        1.3660665949       -0.0435581654
 H          6.7875596653       -0.1574677126       -1.8654673659
 H          8.4959489518       -1.9022318210       -2.1865308874
 H          8.5008823089       -3.9117759614       -0.7523437026
 H          6.8060322278       -4.1544823703        1.0270758081
 H          5.1220053335       -2.3901605489        1.3788551581
 H         -0.9340222436       -2.4337504717        0.7536359773
 H         -3.3516364784       -2.4994485125        0.6231890745
 H         -5.1906469242       -1.8539423556        2.0504438586
 H         -6.9292492887       -3.5925483029        2.2161338939
  62
  -94.7562303403000       0.122171645004469      !
 C         -7.9157572187       -2.9926455484        0.3310550090
 C         -6.7748313497       -3.2761321166       -0.4063199613
 C         -5.7633440770       -2.3438082043       -0.5143532920
 C         -5.8839295622       -1.1062888774        0.1215202591
 N         -4.8618516818       -0.1609636699        0.0171825782
 C         -5.0302498588        1.1700200184       -0.3312392022
 C         -6.1880208474        1.8531702048       -0.6709702119
 C         -6.0697537772        3.1876506895       -1.0289068578
 C         -4.8362172901        3.8238432318       -1.0574237437
 C         -3.6724695028        3.1359933849       -0.7430334395
 C         -3.7672567045        1.8031762768       -0.3844141519
 C         -2.7869156468        0.7980147797       -0.0466882544
 C         -1.4274626209        0.8285481704        0.0673071643
 C         -0.7039347465       -0.3706118913        0.3887530636
 C          0.7026883098       -0.3846606389        0.4144204317
 C          1.4549773234       -1.6149815907        0.3401821678
 C          2.8097329325       -1.6494482980        0.2153032363
 C          3.5172683786       -0.4335502922        0.1904651540
 C          2.8235380675        0.7985024652        0.3933079021
 C          1.4631996532        0.8334125011        0.4902671693
 C          3.8416973022        1.8221767033        0.4358845834
 C          3.7966804574        3.1958867509        0.5934940622
 C          4.9850099203        3.9107665552        0.5369542357
 C          6.1929741758        3.2669830661        0.3060894881
 C          6.2613687503        1.8909772302        0.1475878163
 C          5.0805378080        1.1699520795        0.2372490163
 N          4.8636439653       -0.1921694982        0.0933594888
 C          5.8368836937       -1.1419948304       -0.2200054898
 C          5.6133976363       -2.0492826091       -1.2590773222
 C          6.5765357717       -2.9833677618       -1.5792371452
 C          7.7717426991       -3.0291508848       -0.8751457012
 C          7.9935705996       -2.1333208230        0.1610816502
 C          7.0362121987       -1.1962838597        0.4935437238
 C         -1.4908199099       -1.5496357559        0.6623141217
 C         -2.8496515487       -1.5732869411        0.5818343344
 C         -3.5224300323       -0.4047325360        0.1832846833
 C         -7.0312778054       -0.8245264693        0.8663691071
 C         -8.0370424654       -1.7643524082        0.9648477817
 H         -8.7045990122       -3.7244238366        0.4117852656
 H         -6.6782134491       -4.2286033571       -0.9059599562
 H         -4.8847144257       -2.5505689049       -1.1067839850
 H         -7.1496923299        1.3636982804       -0.6750485930
 H         -6.9579630218        3.7403114269       -1.2965034300
 H         -4.7818285874        4.8643466246       -1.3402079875
 H         -2.7117535801        3.6260523237       -0.7858317477
 H         -0.8967124058        1.7424686144       -0.1394385398
 H          0.9168767259       -2.5483919312        0.3385173160
 H          3.3364164260       -2.5899431938        0.1478423583
 H          0.9646909050        1.7699058251        0.6773700681
 H          2.8553811188        3.6996987159        0.7520781207
 H          4.9699351573        4.9831057883        0.6613453237
 H          7.1009901997        3.8482648587        0.2453080316
 H          7.2038269723        1.4056482665       -0.0533074300
 H          4.6929432016       -1.9923883710       -1.8207402470
 H          6.3999037957       -3.6758483673       -2.3889778745
 H          8.5238740292       -3.7591670390       -1.1313509751
 H          8.9178812328       -2.1720931102        0.7182865711
 H          7.1953028038       -0.5181659119        1.3184264469
 H         -0.9826515514       -2.4384845857        0.9990336016
 H         -3.4040402007       -2.4650571368        0.8348762417
 H         -7.1103661427        0.1208277773        1.3819443219
 H         -8.9196447245       -1.5421162855        1.5461171564
  62
  -94.7552163539000       4.178058694068047E-002 !
 C         -7.7609413145       -3.1033995516       -0.4621882093
 C         -7.6599923624       -2.0545303330       -1.3647189357
 C         -6.7088130876       -1.0701996209       -1.1880622943
 C         -5.8424733763       -1.1260436994       -0.0946941229
 N         -4.8576312559       -0.1491751156        0.0705007446
 C         -5.0565722118        1.2196936057        0.0063386963
 C         -6.2376157339        1.9315188331       -0.1399658558
 C         -6.1617996942        3.3153602451       -0.1376608582
 C         -4.9488351193        3.9739655863        0.0163452859
 C         -3.7686775606        3.2641326798        0.1882234988
 C         -3.8203245640        1.8818879450        0.1884413401
 C         -2.8195440546        0.8509761515        0.3470187806
 C         -1.4616832052        0.8891069908        0.4791569109
 C         -0.7003849990       -0.3338615034        0.5357597296
 C          0.7049520900       -0.3343273474        0.5278961820
 C          1.4738919046       -1.5548436795        0.6368963196
 C          2.8251531415       -1.6073367259        0.4892407224
 C          3.5264884940       -0.4135936145        0.2457644430
 C          2.8171660648        0.8236991969        0.1776596252
 C          1.4618620953        0.8749281575        0.3262645815
 C          3.8099855659        1.8322172866       -0.1153770583
 C          3.7510723451        3.2052535478       -0.2718649564
 C          4.9259259542        3.8955945766       -0.5359957536
 C          6.1402125850        3.2283868498       -0.6268207992
 C          6.2228070226        1.8531532264       -0.4735679243
 C          5.0468901725        1.1579242855       -0.2354798006
 N          4.8556480977       -0.1959656625       -0.0132675315
 C          5.8456570513       -1.1784788381       -0.0844783725
 C          6.7012286790       -1.2310906935       -1.1868383967
 C          7.6625629792       -2.2178107928       -1.2674012477
 C          7.7838532752       -3.1637514136       -0.2595120347
 C          6.9367481228       -3.1116603895        0.8378497827
 C          5.9735586273       -2.1273228626        0.9315255189
 C         -1.4650328189       -1.5606797613        0.5136710412
 C         -2.8175524219       -1.6002898519        0.3748230980
 C         -3.5241253834       -0.3882282200        0.2823652212
 C         -5.9505566684       -2.1780428280        0.8164001241
 C         -6.9044502630       -3.1577832611        0.6278411250
 H         -8.5017468376       -3.8742644575       -0.6082922287
 H         -8.3201459116       -2.0111925641       -2.2183080927
 H         -6.6073737850       -0.2687759484       -1.9046026349
 H         -7.1872081014        1.4286315059       -0.2411007003
 H         -7.0673884621        3.8919285472       -0.2543182814
 H         -4.9270497901        5.0533819204        0.0114229095
 H         -2.8296466699        3.7788406031        0.3237753607
 H         -0.9679738329        1.8439796224        0.5327580403
 H          0.9574849692       -2.4767565629        0.8433795255
 H          3.3480743219       -2.5503434502        0.5454323282
 H          0.9630914922        1.8245707997        0.2392182838
 H          2.8108860067        3.7283366320       -0.1854745560
 H          4.8985009991        4.9673313809       -0.6633395989
 H          7.0419913378        3.7911777868       -0.8170649808
 H          7.1743057572        1.3464862486       -0.5256121264
 H          6.5828966099       -0.5128620508       -1.9843741859
 H          8.3150511844       -2.2580169600       -2.1270386814
 H          8.5341429666       -3.9361582476       -0.3290049779
 H          7.0336736169       -3.8402398517        1.6290487071
 H          5.3282880089       -2.0692130314        1.7952016281
 H         -0.9417069501       -2.5000126219        0.5663034363
 H         -3.3372235860       -2.5449107618        0.3150852421
 H         -5.2964385614       -2.2043769082        1.6750196613
 H         -6.9845682909       -3.9682100583        1.3370839565
  62
  -94.7548345987000       2.789536151461764E-002 !
 C         -7.8802828910       -3.0195140104        0.1147866942
 C         -6.6549717922       -3.3319555923       -0.4568380461
 C         -5.6408938271       -2.3969268080       -0.4918508505
 C         -5.8418415340       -1.1272533175        0.0550100183
 N         -4.8227597764       -0.1752099876        0.0174936756
 C         -4.9725114841        1.1418063434       -0.3921668266
 C         -6.0964863981        1.7942963858       -0.8756055884
 C         -5.9589332324        3.1177290761       -1.2663959705
 C         -4.7382121874        3.7738277988       -1.1881662321
 C         -3.6040940899        3.1144564660       -0.7358070051
 C         -3.7185552096        1.7922848380       -0.3449591285
 C         -2.7605579743        0.8103240448        0.1046107818
 C         -1.4121877579        0.8581007300        0.3061847745
 C         -0.6996837757       -0.3310086609        0.6825821957
 C          0.7058735341       -0.3503703785        0.7130657567
 C          1.4509269266       -1.5858876274        0.6558374982
 C          2.7955731082       -1.6285726549        0.4520165575
 C          3.4998285477       -0.4153377152        0.3344782729
 C          2.8261127044        0.8228820639        0.5622093614
 C          1.4740599495        0.8659279629        0.7381832085
 C          3.8475545195        1.8427369170        0.5087807398
 C          3.8164195963        3.2190236532        0.6446886484
 C          4.9958640348        3.9304976244        0.4767606206
 C          6.1793980208        3.2798245303        0.1561663229
 C          6.2334445835        1.9011943595        0.0172346825
 C          5.0648257047        1.1832875348        0.2198920900
 N          4.8344825749       -0.1813966160        0.1210646110
 C          5.7631815542       -1.1387266663       -0.2882858659
 C          5.4140927672       -2.0603674019       -1.2795939084
 C          6.3282734606       -3.0034150348       -1.7001121988
 C          7.6004632599       -3.0431511992       -1.1468009527
 C          7.9481126339       -2.1331060567       -0.1589193682
 C          7.0399611086       -1.1884730344        0.2752865312
 C         -1.4969100985       -1.5010746003        0.9672051345
 C         -2.8481512000       -1.5382889696        0.8052129490
 C         -3.5002620446       -0.3947324110        0.3103946904
 C         -7.0730562831       -0.8189313706        0.6392063400
 C         -8.0817101828       -1.7602479121        0.6613990282
 H         -8.6717966395       -3.7525073892        0.1355058230
 H         -6.4942579586       -4.3093154030       -0.8872177983
 H         -4.6974825056       -2.6268713965       -0.9636689097
 H         -7.0458109888        1.2896866798       -0.9665527375
 H         -6.8216595583        3.6453558957       -1.6450154852
 H         -4.6686359076        4.8055846413       -1.4982536394
 H         -2.6495351980        3.6168320507       -0.6991396016
 H         -0.8777148855        1.7729893937        0.1142491035
 H          0.9124719977       -2.5165051091        0.7267746685
 H          3.3180713892       -2.5719219966        0.3922225525
 H          0.9883608906        1.8067338119        0.9373789156
 H          2.8915448463        3.7270451499        0.8717392930
 H          4.9920710434        5.0048044968        0.5833119638
 H          7.0794707975        3.8578309744        0.0083966419
 H          7.1556643284        1.4124843730       -0.2557213806
 H          4.4335045645       -2.0062275242       -1.7283175493
 H          6.0525609983       -3.7060183854       -2.4725406703
 H          8.3146022145       -3.7790807049       -1.4824255909
 H          8.9333154170       -2.1675499202        0.2821055218
 H          7.2994623167       -0.5033737543        1.0681116691
 H         -1.0042635152       -2.3694812871        1.3736994537
 H         -3.4120778346       -2.4219445937        1.0654769393
 H         -7.2170024792        0.1493273178        1.0944206164
 H         -9.0293448788       -1.5155367939        1.1180629806
  62
  -94.7544206812000       1.800149945985074E-002 !
 C         -7.6802063856       -3.1695530316       -0.3977139205
 C         -7.5248171429       -2.2129917137       -1.3902008118
 C         -6.5869894515       -1.2095761381       -1.2522490961
 C         -5.7906528501       -1.1523229660       -0.1074477955
 N         -4.8169073675       -0.1582882464        0.0201110324
 C         -5.0069208434        1.1952172220       -0.1993045823
 C         -6.1761601030        1.8840353688       -0.4844246776
 C         -6.0960399039        3.2597417740       -0.6276592691
 C         -4.8903547437        3.9338529766       -0.4811745866
 C         -3.7237674265        3.2498475147       -0.1704015471
 C         -3.7795176072        1.8755530568       -0.0234148352
 C         -2.7924290267        0.8697022702        0.2996019608
 C         -1.4423871506        0.9232656048        0.4977244654
 C         -0.6907595702       -0.2868596426        0.7174580373
 C          0.7116100782       -0.2877273283        0.7728260189
 C          1.4743589087       -1.5157489342        0.8604630114
 C          2.8136924655       -1.5766412636        0.6423563532
 C          3.5037452083       -0.3844970915        0.3531817276
 C          2.8302178390        0.8689458007        0.4641880020
 C          1.4841320961        0.9292309318        0.6791154742
 C          3.8492817717        1.8763856628        0.2691556888
 C          3.8219047509        3.2590306506        0.2492499615
 C          4.9963740894        3.9449373712       -0.0268422803
 C          6.1731046863        3.2609337684       -0.3004871337
 C          6.2243015560        1.8758678167       -0.2855121188
 C          5.0610818601        1.1880266499        0.0239652542
 N          4.8314075224       -0.1780026772        0.0822296981
 C          5.7448099949       -1.1858620658       -0.2278165719
 C          5.3623372023       -2.2193848075       -1.0876909117
 C          6.2514568962       -3.2270137778       -1.3974492709
 C          7.5319476707       -3.2210068931       -0.8622708725
 C          7.9142465850       -2.1969991568       -0.0080932127
 C          7.0313419432       -1.1856086877        0.3144490140
 C         -1.4574660562       -1.5111311294        0.7732107080
 C         -2.8020124212       -1.5656272763        0.5760582610
 C         -3.4973583269       -0.3701028455        0.3282493887
 C         -5.9543244471       -2.1105288909        0.8937648900
 C         -6.8933252710       -3.1113647916        0.7430359383
 H         -8.4093783653       -3.9565371629       -0.5134799743
 H         -8.1304411624       -2.2578724504       -2.2831955764
 H         -6.4419235229       -0.4812686399       -2.0361672862
 H         -7.1204431747        1.3702932336       -0.5813617508
 H         -6.9920584678        3.8181938275       -0.8544776068
 H         -4.8647094134        5.0063691183       -0.6021465240
 H         -2.7917106609        3.7788225834       -0.0416860677
 H         -0.9413979743        1.8743223144        0.4430271064
 H          0.9635404363       -2.4309027541        1.1063476165
 H          3.3464313833       -2.5137063973        0.7108397190
 H          1.0055740703        1.8885400273        0.7779586218
 H          2.9032190383        3.7928223472        0.4394321705
 H          4.9939648732        5.0244369297       -0.0424740888
 H          7.0685695226        3.8172965246       -0.5344501604
 H          7.1392354315        1.3560715570       -0.5236963578
 H          4.3736077313       -2.2052682623       -1.5214066617
 H          5.9484725286       -4.0185799648       -2.0667734369
 H          8.2256444335       -4.0099720350       -1.1084420094
 H          8.9068959314       -2.1934191592        0.4172520808
 H          7.3185649380       -0.4080358919        1.0059246187
 H         -0.9439353238       -2.4382378303        0.9610356283
 H         -3.3225019317       -2.5115276086        0.5907309014
 H         -5.3546571242       -2.0489082479        1.7895328225
 H         -7.0160099975       -3.8498061148        1.5214342881
