66
 energy: -88.254937718825 gnorm: 0.000046916778 xtb: 6.7.1 (edcfbbe)
C           -6.50102187487337        3.95700997463543       -0.68490976179040
C           -7.09226700365772        2.71000574219400       -0.00971323884404
C           -8.38063231880578        2.33348524088301       -0.74773159127743
C           -7.45341793251595        3.03264306241560        1.44855511769960
C           -6.05762208317913        1.59681649354612       -0.02912200635049
C           -6.26629692955451        0.36847153419465       -0.65090337609412
C           -5.30232746564022       -0.61934539098845       -0.64029151524696
C           -4.06836816345043       -0.42919765872437       -0.00983755490624
C           -3.04801392837781       -1.46849299437169        0.00726514633983
C           -3.40904677413131       -2.82709608442984        0.04762661895288
C           -2.47470710795979       -3.83900283485051        0.07944703784464
C           -1.12736269276831       -3.48382910787937        0.06049313762816
N           -0.00814229537471       -4.26914547005462        0.07805356308200
C            1.10914109468447       -3.49291599891285        0.04429343510021
C            2.47266882272061       -3.84921363908723        0.04947943811681
C            3.40251504578195       -2.85715421913314        0.02784893332120
C            3.06600981363714       -1.45412329589345       -0.01318728762155
C            4.05430704112605       -0.45447093341734       -0.02489359847160
C            5.43703852617104       -0.71983071744432        0.25868168848776
C            6.38375754671091        0.26366930942407        0.26721341836803
C            6.07353456661283        1.60604488510858       -0.01752402727719
C            7.09416457040960        2.72288105560489       -0.01580305086054
C            7.15977090063627        3.34856474095103       -1.41983794264348
C            6.66888236029841        3.79563447167580        1.00149725466727
C            8.49935115127469        2.24193880301992        0.35925841232152
C            4.72300325900196        1.88407709506545       -0.31707707800226
C            3.75964923620535        0.92087645961559       -0.31592962707049
C            1.65327427862875       -1.12566045711923       -0.03703932594044
C            0.72040675910744       -2.11847225194088       -0.00021950757741
C           -0.73209970565791       -2.12023503865936        0.01354647656464
C           -1.67979772249233       -1.12576380313263       -0.00877411954441
C           -3.85670992968465        0.80877835714101        0.60988916153239
C           -4.82624556310054        1.78628977616941        0.60088202221585
H           -7.23250894990909        4.76267239133868       -0.69026915274288
H           -6.22572678532021        3.73292216806836       -1.71391990796731
H           -5.61366718224529        4.30648570532294       -0.16410451044207
H           -9.08157364485034        3.16483111387682       -0.70040123248463
H           -8.18320188980030        2.12019179496329       -1.79599693299104
H           -8.85495511507420        1.46788855395924       -0.29048924103870
H           -7.85260780766168        2.14823897006848        1.94173199708355
H           -6.58418729996608        3.36976411947345        2.00673338113938
H           -8.20643123559262        3.81750209968709        1.48359870108270
H           -7.19388232834875        0.16513969669565       -1.16197089964353
H           -5.49857781955789       -1.54708745867422       -1.15835869668471
H           -4.45683734533698       -3.08486602549355        0.08589420999215
H           -2.77693005473891       -4.87493441482143        0.12420638951732
H           -0.01104922990734       -5.27715817425870        0.11067785007303
H            2.76536369232939       -4.88917617078457        0.06537178649217
H            4.44355729683483       -3.13507180228128        0.00753373847116
H            5.74222119270574       -1.72215119746737        0.51474465852507
H            7.39873808270421       -0.01211493683531        0.50768236932512
H            7.45425984971373        2.59894265838220       -2.15190689404893
H            7.89033039869302        4.15495558978119       -1.43605587505505
H            6.19641502327821        3.75413016946266       -1.71689375015546
H            5.70072058817613        4.21924500758751        0.74911532693475
H            6.60224729156531        3.36288228401090        1.99797666369926
H            7.39942532205365        4.60191457475297        1.02169424973233
H            8.86436649145117        1.50519086013046       -0.35295654693454
H            9.18623327440471        3.08619682569260        0.35120765699400
H            8.51050391816154        1.80899211960153        1.35722526227935
H            4.43414594502217        2.89661938130551       -0.56112164408331
H            2.75287765780694        1.20236328849932       -0.58114018411926
H            1.33860399833533       -0.09618707175591       -0.04460646790262
H           -1.38245712848472       -0.09014743246718       -0.06728383263026
H           -2.92935621305183        0.99160553636193        1.13346674196486
H           -4.61666568789703        2.71934786305163        1.10347359006317
