66
 energy: -88.363565170134 gnorm: 0.000053328004 xtb: 6.7.1 (edcfbbe)
C           -6.42107640409689        4.02665948564760       -0.37366238983724
C           -7.08398844832548        2.70684226083529        0.04862820043571
C           -8.26112025807849        2.44149549880451       -0.89497295929400
C           -7.63555515297951        2.83547287728261        1.47652729675943
C           -6.04331096303104        1.59762408606873        0.01588945777795
C           -6.15733121364805        0.47157054363272       -0.79093520040645
C           -5.18795466940612       -0.51554289663433       -0.79112362464210
C           -4.05824479273289       -0.41536760924740        0.01382396637614
C           -3.02322109085663       -1.46077539339260        0.01031119455583
C           -3.39397807914199       -2.81310626525880        0.00181560433100
C           -2.45913747475627       -3.82843429032590        0.00103073800837
C           -1.11797048166004       -3.47552649734050        0.00091598776063
N            0.00100635188018       -4.26962557497440       -0.00503115194913
C            1.11907935706240       -3.47425102942110       -0.00615191407787
C            2.46063056053142       -3.82566409210738       -0.01039556206756
C            3.39433657254576       -2.80931055678508       -0.00682147623792
C            3.02211414737315       -1.45734049857241       -0.00649368616792
C            4.05627810347002       -0.41109241899071       -0.00907768945203
C            5.19053091140869       -0.51469629699646        0.78901858822616
C            6.16025317967768        0.47208392435667        0.78701405337071
C            6.04193977454532        1.60135053396749       -0.01469295980479
C            7.08305056881909        2.71008053670167       -0.04960878145588
C            7.62093086543347        2.84884084652594       -1.48180825202572
C            6.42486082954947        4.02705053944167        0.38870476617005
C            8.26920127894944        2.43696312096098        0.88040480408775
C            4.90418788201602        1.69915028721875       -0.81345512964462
C            3.93131512670017        0.72020896134799       -0.81193628596431
C            1.67586897808235       -1.11296422667543       -0.00594106929317
C            0.71906308317833       -2.11687759134868       -0.00187269067899
C           -0.71944424710641       -2.11771351922327        0.00609162749412
C           -1.67737635040834       -1.11491003511623        0.01513221854395
C           -3.93798759553703        0.71224479742901        0.82253015194436
C           -4.91069396102106        1.69137686270671        0.82241668810499
H           -7.15372228027758        4.83125094958389       -0.37333406430908
H           -6.00806688954545        3.93565579827064       -1.37664981071967
H           -5.61528230589136        4.29964380050819        0.30233233302578
H           -8.97117097456547        3.26371514425884       -0.82824632318841
H           -7.92681383258971        2.36992283426923       -1.92765724502164
H           -8.78173230126808        1.52567950675960       -0.62387497031586
H           -8.08412995700098        1.89546753111274        1.79277253381768
H           -6.85087715722212        3.09250038356693        2.18285959838251
H           -8.39688267078207        3.61203928711665        1.51558571227371
H           -7.00904595196605        0.34527147896555       -1.43992254983007
H           -5.30246622021778       -1.36931995516916       -1.44433040169065
H           -4.44469016974361       -3.06378090239358        0.01709874433552
H           -2.76410247334192       -4.86479978537023        0.00269814192525
H            0.00162581235276       -5.27552857629322       -0.00882822684268
H            2.76674452886013       -4.86165513633070       -0.01912258482521
H            4.44527578405858       -3.05873825826345       -0.02606045233341
H            5.30873648549986       -1.37119069991926        1.43800067176004
H            7.01583835513291        0.34279647478020        1.43030183930826
H            8.06092631519525        1.90928698633459       -1.81117975563708
H            8.38626674749283        3.62142198446776       -1.52135720063545
H            6.83084491628135        3.11698940101577       -2.17789550759830
H            5.61238753672029        4.30487603857202       -0.27729249465811
H            6.02184562951510        3.92899343776197        1.39508872598431
H            7.15771888052269        4.83145107518306        0.38675730241990
H            8.78599446468066        1.52248504909853        0.59764726225780
H            8.97943887320921        3.25892399186408        0.81241531523679
H            7.94518997740813        2.35852637039137        1.91585257866352
H            4.76775716322273        2.55594385982469       -1.45696298339491
H            3.06973484404961        0.82309370236331       -1.45672508405866
H            1.37792774408500       -0.07512303717447        0.01175912409942
H           -1.38059412697219       -0.07663885751488        0.00464969609981
H           -3.08023615230632        0.81216144627110        1.47287363957051
H           -4.77810795972535        2.54522737962592        1.47063381392907
