66
 energy: -88.363563966622 gnorm: 0.000046311618 xtb: 6.7.1 (edcfbbe)
C           -7.19094096218275        2.74496072622834       -1.35318455271470
C           -7.11172653540148        2.11703342565326        0.04646914204668
C           -8.45424635983194        1.45817095238213        0.39729851217996
C           -6.85304955895116        3.23702943329072        1.05900646154024
C           -6.02031986970171        1.05718529666508        0.05148813398174
C           -6.12371382352646       -0.04250690429088       -0.79825993647721
C           -5.16169946448435       -1.03206239294332       -0.82361321973692
C           -4.04117956673119       -0.96013943456465        0.00007379758709
C           -3.01098349240568       -2.01034129990976       -0.01673642255457
C           -3.38834219258665       -3.36043730808109       -0.04439812761269
C           -2.45833041662127       -4.38035323868374       -0.04118254600127
C           -1.11559181727461       -4.03399275320478       -0.01972586410358
N           -0.00014733869757       -4.83319758220632       -0.01074665171579
C            1.12153010824487       -4.04292963054867        0.00759065090383
C            2.46154338205803       -4.39993958268439        0.02517111726647
C            3.39951339999527       -3.38743696930363        0.04055008915901
C            3.03271250933928       -2.03421398427264        0.02885206449190
C            4.07017236977133       -0.99109864137064        0.02593288398916
C            5.18960380136445       -1.08028277791874        0.84601269968541
C            6.16126585987845       -0.09521531836855        0.84022938544099
C            6.06039458801801        1.01596636919692        0.01127173101118
C            7.10752661488524        2.11863947494716       -0.03456463916229
C            7.69555340023630        2.18837537644273       -1.45201389928118
C            6.44395392620016        3.45809724280945        0.31900764267665
C            8.25776562529815        1.88347239714328        0.94930327475977
C            4.93827616721472        1.09787355424461       -0.81106562970242
C            3.96229891571822        0.12216577573574       -0.80406585038594
C            1.68826094312320       -1.68396383829162        0.01213268119574
C            0.72739544553792       -2.68385296122955        0.00711958769196
C           -0.71087456259855       -2.67811750101244       -0.00357469796583
C           -1.66389603671766       -1.67072089713448        0.00369049964822
C           -3.92834363595071        0.13941759610820        0.84414951311004
C           -4.89951479645012        1.12426589564844        0.87086347190006
H           -7.95492123477472        3.51960396727663       -1.37394985721085
H           -7.43806179559308        2.00194415936520       -2.10670907908291
H           -6.23574169869733        3.19438608259373       -1.61861355866718
H           -8.72677192232423        0.69930783741325       -0.33106017521331
H           -8.39674658434790        0.98586597297071        1.37630292321178
H           -9.24396607723408        2.20647220147192        0.42047623578895
H           -6.80541678230341        2.84474409562127        2.07255409559948
H           -5.92690754168065        3.76181472664822        0.83537949535619
H           -7.66640858332017        3.95898794812369        1.01597802144728
H           -6.97190343348614       -0.13549986853770       -1.46061084553036
H           -5.26963430187015       -1.86388060360248       -1.50564051921389
H           -4.44052235357631       -3.60559198907536       -0.04510759694488
H           -2.76829110169632       -5.41518873187615       -0.05130347533416
H           -0.00413814439165       -5.83908846088369       -0.01612119234251
H            2.76341661201133       -5.43721469520810        0.02355371957994
H            4.44973379992002       -3.64079654773639        0.03866833448349
H            5.29411100562434       -1.92345507418447        1.51456496019950
H            7.00468480246611       -0.21159077771503        1.50181717545750
H            8.15147308444661        1.23630805191807       -1.71767852198966
H            8.45789964916175        2.96314463903020       -1.50421473197508
H            6.92845634417904        2.41474841036843       -2.18765935693274
H            5.66097680265342        3.71297193081881       -0.38993990399394
H            6.00113802756362        3.40782325882793        1.31208472422742
H            7.18348081361215        4.25633064345627        0.31037380300309
H            8.78536883718228        0.95974979114198        0.72229574635087
H            8.97008725262099        2.70317755456944        0.87624006981104
H            7.89423212726347        1.84463569518201        1.97387595823990
H            4.81707424938466        1.93886007064751       -1.47803935068285
H            3.11233258382849        0.21203764077540       -1.46603229801628
H            1.39496571436018       -0.64467959872143        0.02156039876841
H           -1.36267804707618       -0.63366583265501        0.00660808026482
H           -3.07711548796528        0.21583274362821        1.50627884879573
H           -4.76507324271055        1.95005625786530        1.55098356968819
