  66
        -88.32906172
 C         -6.4219725964        4.0223699574       -0.4008121716
 C         -7.0764100250        2.7069567887        0.0446550384
 C         -8.2652508022        2.4291390201       -0.8791369119
 C         -7.6080867310        2.8506710475        1.4776988973
 C         -6.0358209311        1.5991712249        0.0108099691
 C         -6.1646181940        0.4600462863       -0.7742136300
 C         -5.1954250746       -0.5266002886       -0.7738211456
 C         -4.0523448172       -0.4124170333        0.0098002752
 C         -3.0194395294       -1.4581225641        0.0083498163
 C         -3.3922332896       -2.8095977325        0.0045180234
 C         -2.4593540352       -3.8261941474        0.0051813118
 C         -1.1179158275       -3.4757332993        0.0030109585
 N          0.0001476546       -4.2708912903       -0.0020201322
 C          1.1189294163       -3.4765621427       -0.0045005884
 C          2.4601249378       -3.8279558444       -0.0086098228
 C          3.3938578650       -2.8120788166       -0.0059275267
 C          3.0220282512       -1.4603242983       -0.0054901720
 C          4.0546942529       -0.4144216531       -0.0074536717
 C          5.2031912176       -0.5309980677        0.7677121287
 C          6.1713385647        0.4567639422        0.7660120948
 C          6.0357625030        1.5998545303       -0.0120636621
 C          7.0736990984        2.7100326093       -0.0465107676
 C          7.5808721944        2.8790080468       -1.4858471994
 C          6.4233484998        4.0162192086        0.4314820837
 C          8.2790729536        2.4200365764        0.8519801715
 C          4.8837128504        1.7118258742       -0.7873021580
 C          3.9131766276        0.7313248626       -0.7864771957
 C          1.6761253565       -1.1156223117       -0.0054203855
 C          0.7199207017       -2.1191715479       -0.0019118775
 C         -0.7179441455       -2.1185909035        0.0053863457
 C         -1.6733948871       -1.1142675470        0.0114609939
 C         -3.9174897768        0.7293319850        0.7956992468
 C         -4.8897996200        1.7081886848        0.7953896803
 H         -7.1571751779        4.8244650410       -0.4052375936
 H         -6.0171291462        3.9187416834       -1.4055582134
 H         -5.6120359429        4.3063519797        0.2649487261
 H         -8.9747146008        3.2516401670       -0.8139665540
 H         -7.9438639489        2.3437736088       -1.9144736466
 H         -8.7809512802        1.5169797314       -0.5885262926
 H         -8.0546776897        1.9150912008        1.8078644932
 H         -6.8128375438        3.1110653962        2.1703270433
 H         -8.3662992364        3.6298188392        1.5201108292
 H         -7.0275653459        0.3233913741       -1.4056108635
 H         -5.3206996082       -1.3907530121       -1.4104738860
 H         -4.4430328266       -3.0583893807        0.0230939413
 H         -2.7658796642       -4.8619078882        0.0097178440
 H          0.0001616820       -5.2766350910       -0.0041949422
 H          2.7658369151       -4.8639195963       -0.0166546129
 H          4.4444009333       -3.0618794665       -0.0265845037
 H          5.3341789935       -1.3980241452        1.3991849249
 H          7.0391026882        0.3177746338        1.3901029696
 H          8.0202794785        1.9489621942       -1.8409739560
 H          8.3394419706        3.6578388111       -1.5270977461
 H          6.7744787564        3.1535224072       -2.1600109016
 H          5.5937798342        4.3021788888       -0.2091406015
 H          6.0460608319        3.8983471840        1.4454202317
 H          7.1531889219        4.8230604967        0.4255601682
 H          8.7888631715        1.5113733449        0.5403122663
 H          8.9875370442        3.2432377609        0.7845649171
 H          7.9768753389        2.3215782659        1.8920301899
 H          4.7347233925        2.5807808998       -1.4110218420
 H          3.0409479271        0.8441349376       -1.4142029083
 H          1.3776009112       -0.0783112847        0.0135796936
 H         -1.3742616333       -0.0770173448       -0.0037378062
 H         -3.0493519474        0.8401311540        1.4296150129
 H         -4.7470976024        2.5735710064        1.4256343423
