66
 energy: -88.254950315768 gnorm: 0.000027759279 xtb: 6.7.1 (edcfbbe)
C           -8.42573652157167        2.11097152276237       -0.61103730918312
C           -7.15691160348396        2.67797831075022        0.04403100588606
C           -7.44659295620322        3.03745021345404        1.50961295243287
C           -6.77225531859052        3.96332317038129       -0.69511953075964
C           -6.06213911728617        1.62470293220893       -0.00131155778468
C           -6.26064140249292        0.39318759697260        0.62594377811315
C           -5.30079404811419       -0.59375191283813        0.60964060372119
C           -4.07276051696238       -0.40105488530717       -0.03541248904315
C           -3.05031109737583       -1.43798765718781       -0.05454765901734
C           -3.40928871252691       -2.79770061607188       -0.08122502275097
C           -2.47350539452421       -3.80833537595501       -0.10117764984987
C           -1.12675570396104       -3.45076449356656       -0.08501808879772
N           -0.00657227617906       -4.23470016247571       -0.08796826239591
C            1.10950313957875       -3.45660917648917       -0.06121840428016
C            2.47323576145085       -3.81213827526939       -0.04260004755056
C            3.40194298737006       -2.81946644511953       -0.00453294934391
C            3.06421951178806       -1.41657901983564        0.00258486340620
C            4.05227325899447       -0.41662972567685        0.02106222560564
C            5.43483862559248       -0.68938078504535        0.29640580436212
C            6.37839747521570        0.29291430792197        0.30934075910725
C            6.07094052390722        1.64392784884589        0.03954354003514
C            7.16643163558908        2.68727948040494        0.05741186385637
C            8.23448631867910        2.31590113264476       -0.98568161153904
C            6.65172361599343        4.09322347222713       -0.26657397584105
C            7.80856388287447        2.72286427856013        1.45505312027191
C            4.72225146279968        1.93174896263081       -0.23539755745665
C            3.75793052118638        0.96511292034000       -0.23854430007525
C            1.65123849528423       -1.08812806345921       -0.01588612146668
C            0.71921333159125       -2.08223018968545       -0.04168215255987
C           -0.73339401954704       -2.08596663603930       -0.05596442619942
C           -1.68265898648470       -1.09277303566695       -0.04548510796846
C           -3.87206063388622        0.83457581938204       -0.65975171934665
C           -4.84229628996708        1.81604479278235       -0.64492289648964
H           -9.21912732280740        2.85565268562569       -0.59792776350719
H           -8.78018241846282        1.22666894328613       -0.08839246890901
H           -8.22491983887757        1.83763702823133       -1.64536010262929
H           -8.21433198412092        3.80689616888285        1.56230144206291
H           -7.79268279680549        2.17244578447165        2.06887696045432
H           -6.54544679490841        3.41482642014700        1.98949378448886
H           -5.89200658003167        4.42215871465147       -0.25019721761235
H           -6.57894495209487        3.76686322750058       -1.74744995544032
H           -7.59163424162465        4.67698033379979       -0.63176410391595
H           -7.18682499510106        0.19771697990054        1.14653366214293
H           -5.48947366309665       -1.52056416882139        1.13203266741561
H           -4.45668370307294       -3.05748304227549       -0.11670433810152
H           -2.77396366960020       -4.84521936267895       -0.13444508334888
H           -0.00808646265091       -5.24316515506936       -0.10108417706838
H            2.76694228672965       -4.85169216497448       -0.06457214090261
H            4.44354283683824       -3.09581839761481       -0.01592937981450
H            5.73914333140536       -1.69538288499487        0.53925408498310
H            7.39843877936844        0.02003840981194        0.53994332202381
H            8.68095715409232        1.34944147247373       -0.76815795192126
H            9.02513020436604        3.06358251903308       -0.99349712806682
H            7.79029384238036        2.27043541527866       -1.97831528194791
H            6.21243969665468        4.12918577583411       -1.26116216830118
H            5.91121239578825        4.41625724998533        0.46187531478060
H            7.48028291259089        4.79845746716367       -0.23909790052920
H            8.23957513647092        1.76042094973383        1.71707815231786
H            8.59868299722219        3.47057500153815        1.48431405947176
H            7.06204500789058        2.97759672133837        2.20500834346598
H            4.42492377350003        2.94484118934480       -0.45763775063344
H            2.74848168512119        1.25301734855965       -0.48573825735410
H            1.33596182483434       -0.05980032792287        0.02994673731931
H           -1.38727922344680       -0.05603073369099        0.00211209510282
H           -2.95082009122366        1.01776100802477       -1.19399695277572
H           -4.63181458138939        2.74350590524575       -1.15336066072640
