  68
       -116.75221851
 C         -9.4350286595        3.3078123050        0.1018013906
 C         -8.4545191201        4.2968679503        0.0929991726
 C         -7.1122684632        3.9758705536        0.0565436035
 C         -6.7551164431        2.6322841098        0.0280875534
 C         -7.7611282201        1.6430174189        0.0371654136
 C         -9.1044693380        1.9632101501        0.0740717304
 O         -7.2274698678        0.3883001415        0.0059660783
 C         -5.8808320385        0.5524858360       -0.0221768490
 C         -5.5130432909        1.9143249764       -0.0125055077
 C         -4.1685088576        2.2982556630       -0.0401225322
 C         -3.1847910106        1.3334823511       -0.0669316134
 C         -3.5559737375       -0.0104691120       -0.0796475734
 C         -4.9088976158       -0.4333591402       -0.0551242522
 C         -4.9049673432       -1.8653950050       -0.0838621385
 C         -5.9133228341       -2.8178790933       -0.0992826152
 C         -5.5566624938       -4.1509814265       -0.1806211331
 C         -4.2198073893       -4.5314800929       -0.2703338483
 C         -3.1992105483       -3.5965543993       -0.2521447454
 C         -3.5454250204       -2.2589122803       -0.1299679604
 N         -2.7415762813       -1.1286275827       -0.1048022303
 C         -1.3681204885       -1.1184931940       -0.0383400545
 C         -0.6612011205       -2.0362831116        0.7224216712
 N          0.6532842987       -2.0149453127        0.8460167236
 C          1.3349581595       -1.0284656710        0.1791643532
 N          2.7093980781       -1.0552755599        0.2054801252
 C          3.4782688075       -2.2093027118        0.1370973563
 C          3.0786793497       -3.5354693865        0.1501102195
 C          4.0628677149       -4.5045695936        0.0642004318
 C          5.4095623329       -4.1646823954       -0.0434389914
 C          5.8145335648       -2.8426417379       -0.0602293052
 C          4.8431676782       -1.8562507746        0.0288411938
 C          4.8916490074       -0.4246619339        0.0491541850
 C          5.8948409298        0.5279066697       -0.0047722778
 O          7.2277359833        0.3191776260       -0.1449614968
 C          7.8071319486        1.5537691332       -0.1414752176
 C          9.1549253649        1.8290502283       -0.2665198276
 C          9.5354384808        3.1605348032       -0.2360829849
 C          8.5988700909        4.1803689737       -0.0852833504
 C          7.2518152895        3.9045880901        0.0373348863
 C          6.8448055066        2.5750896685        0.0082132147
 C          5.5824406905        1.8996871384        0.0979075824
 C          4.2621117129        2.3233107402        0.2792334421
 C          3.2463977910        1.3923038983        0.3223669487
 C          3.5556471664        0.0381888347        0.1794508706
 C          0.6267449535       -0.1019075606       -0.5706084981
 N         -0.6881764044       -0.1199690037       -0.6903038780
 H        -10.4752729568        3.5946933235        0.1309826444
 H         -8.7543521472        5.3339615033        0.1156555368
 H         -6.3542534712        4.7438940336        0.0502644871
 H         -9.8582075133        1.1923023521        0.0807007833
 H         -3.9102718474        3.3452910945       -0.0343719888
 H         -2.1407251236        1.6002185376       -0.0907938297
 H         -6.9472564393       -2.5127132622       -0.0576713152
 H         -6.3233804492       -4.9109326832       -0.1936522973
 H         -3.9724223980       -5.5781262024       -0.3641745843
 H         -2.1710863426       -3.9065817689       -0.3563588762
 H         -1.1850654672       -2.7544234945        1.3366341228
 H          2.0359233771       -3.7959299259        0.2351369656
 H          3.7803919163       -5.5466124072        0.0765172695
 H          6.1475358976       -4.9500671372       -0.1143809642
 H          6.8563961107       -2.5730519054       -0.1378097901
 H          9.8749815159        1.0350401103       -0.3826847414
 H         10.5808105800        3.4122198214       -0.3310697936
 H          8.9373665918        5.2055042604       -0.0652975611
 H          6.5277328461        4.6964147312        0.1534123408
 H          4.0465001830        3.3736760577        0.3933504354
 H          2.2293806940        1.7074169386        0.4943016404
 H          1.1503362426        0.6177705239       -1.1834177839
