  68
  -116.315995560300       0.305357364028145      !
 C         -9.4350286595        3.3078123050        0.1018013906
 C         -8.4545191201        4.2968679503        0.0929991726
 C         -7.1122684632        3.9758705536        0.0565436035
 C         -6.7551164431        2.6322841098        0.0280875534
 C         -7.7611282201        1.6430174189        0.0371654136
 C         -9.1044693380        1.9632101501        0.0740717304
 O         -7.2274698678        0.3883001415        0.0059660783
 C         -5.8808320385        0.5524858360       -0.0221768490
 C         -5.5130432909        1.9143249764       -0.0125055077
 C         -4.1685088576        2.2982556630       -0.0401225322
 C         -3.1847910106        1.3334823511       -0.0669316134
 C         -3.5559737375       -0.0104691120       -0.0796475734
 C         -4.9088976158       -0.4333591402       -0.0551242522
 C         -4.9049673432       -1.8653950050       -0.0838621385
 C         -5.9133228341       -2.8178790933       -0.0992826152
 C         -5.5566624938       -4.1509814265       -0.1806211331
 C         -4.2198073893       -4.5314800929       -0.2703338483
 C         -3.1992105483       -3.5965543993       -0.2521447454
 C         -3.5454250204       -2.2589122803       -0.1299679604
 N         -2.7415762813       -1.1286275827       -0.1048022303
 C         -1.3681204885       -1.1184931940       -0.0383400545
 C         -0.6612011205       -2.0362831116        0.7224216712
 N          0.6532842987       -2.0149453127        0.8460167236
 C          1.3349581595       -1.0284656710        0.1791643532
 N          2.7093980781       -1.0552755599        0.2054801252
 C          3.4782688075       -2.2093027118        0.1370973563
 C          3.0786793497       -3.5354693865        0.1501102195
 C          4.0628677149       -4.5045695936        0.0642004318
 C          5.4095623329       -4.1646823954       -0.0434389914
 C          5.8145335648       -2.8426417379       -0.0602293052
 C          4.8431676782       -1.8562507746        0.0288411938
 C          4.8916490074       -0.4246619339        0.0491541850
 C          5.8948409298        0.5279066697       -0.0047722778
 O          7.2277359833        0.3191776260       -0.1449614968
 C          7.8071319486        1.5537691332       -0.1414752176
 C          9.1549253649        1.8290502283       -0.2665198276
 C          9.5354384808        3.1605348032       -0.2360829849
 C          8.5988700909        4.1803689737       -0.0852833504
 C          7.2518152895        3.9045880901        0.0373348863
 C          6.8448055066        2.5750896685        0.0082132147
 C          5.5824406905        1.8996871384        0.0979075824
 C          4.2621117129        2.3233107402        0.2792334421
 C          3.2463977910        1.3923038983        0.3223669487
 C          3.5556471664        0.0381888347        0.1794508706
 C          0.6267449535       -0.1019075606       -0.5706084981
 N         -0.6881764044       -0.1199690037       -0.6903038780
 H        -10.4752729568        3.5946933235        0.1309826444
 H         -8.7543521472        5.3339615033        0.1156555368
 H         -6.3542534712        4.7438940336        0.0502644871
 H         -9.8582075133        1.1923023521        0.0807007833
 H         -3.9102718474        3.3452910945       -0.0343719888
 H         -2.1407251236        1.6002185376       -0.0907938297
 H         -6.9472564393       -2.5127132622       -0.0576713152
 H         -6.3233804492       -4.9109326832       -0.1936522973
 H         -3.9724223980       -5.5781262024       -0.3641745843
 H         -2.1710863426       -3.9065817689       -0.3563588762
 H         -1.1850654672       -2.7544234945        1.3366341228
 H          2.0359233771       -3.7959299259        0.2351369656
 H          3.7803919163       -5.5466124072        0.0765172695
 H          6.1475358976       -4.9500671372       -0.1143809642
 H          6.8563961107       -2.5730519054       -0.1378097901
 H          9.8749815159        1.0350401103       -0.3826847414
 H         10.5808105800        3.4122198214       -0.3310697936
 H          8.9373665918        5.2055042604       -0.0652975611
 H          6.5277328461        4.6964147312        0.1534123408
 H          4.0465001830        3.3736760577        0.3933504354
 H          2.2293806940        1.7074169386        0.4943016404
 H          1.1503362426        0.6177705239       -1.1834177839
  68
  -116.315984879200       0.301925437484141      !
 C         -9.3269679053        3.4062297713        0.1857893669
 C         -8.3223262444        4.3706293673        0.2029204543
 C         -6.9886025444        4.0174324572        0.1545466047
 C         -6.6655321127        2.6668051064        0.0875512134
 C         -7.6953625775        1.7025595424        0.0712115336
 C         -9.0301945473        2.0550852051        0.1197422677
 O         -7.1925052443        0.4366424778        0.0046413675
 C         -5.8421597128        0.5683924350       -0.0217727072
 C         -5.4416470187        1.9202685414        0.0242555495
 C         -4.0888389251        2.2734851510        0.0048308247
 C         -3.1285573435        1.2868528628       -0.0509843553
 C         -3.5320029836       -0.0469466930       -0.0988421017
 C         -4.8939959621       -0.4393045617       -0.0820726978
 C         -4.9216010087       -1.8704610768       -0.1430904420
 C         -5.9500670782       -2.8005514834       -0.1804987170
 C         -5.6217003193       -4.1390285791       -0.2894806506
 C         -4.2929974795       -4.5469296788       -0.3821366228
 C         -3.2524963057       -3.6350636530       -0.3420901067
 C         -3.5710124542       -2.2929199058       -0.1965954504
 N         -2.7431116076       -1.1819416821       -0.1512742973
 C         -1.3685155770       -1.1957321007       -0.0955504224
 C         -0.6688386343       -2.1176606727        0.6664095459
 N          0.6448440811       -2.0950779918        0.8040792930
 C          1.3320818187       -1.1051302438        0.1467947963
 N          2.7047373921       -1.1069526420        0.2115709343
 C          3.5007832727       -2.2443067929        0.2001279729
 C          3.1306683971       -3.5781260630        0.2499656999
 C          4.1381344195       -4.5264391309        0.2229391803
 C          5.4791247278       -4.1589355459        0.1362927882
 C          5.8546736315       -2.8292004946        0.0821782571
 C          4.8597156317       -1.8629786068        0.1127337314
 C          4.8759602622       -0.4307705018        0.0843396226
 C          5.8572566229        0.5436564512        0.0142659951
 O          7.1973635379        0.3639230925       -0.0931950692
 C          7.7457794142        1.6121765383       -0.1318710606
 C          9.0881160813        1.9173716342       -0.2453090684
 C          9.4335256608        3.2585842664       -0.2696072092
 C          8.4684260723        4.2589157954       -0.1831937612
 C          7.1271520570        3.9532941966       -0.0690356935
 C          6.7555257677        2.6134300867       -0.0427795458
 C          5.5097163362        1.9101503408        0.0558976959
 C          4.1773115068        2.3083274844        0.2020692021
 C          3.1838763365        1.3549209574        0.2637966160
 C          3.5270950161        0.0046019672        0.1705298287
 C          0.6321415955       -0.1934703587       -0.6286239360
 N         -0.6812085422       -0.2107906914       -0.7587837052
 H        -10.3597160078        3.7177566029        0.2250059309
 H         -8.5960707675        5.4137391325        0.2555305742
 H         -6.2115182437        4.7660708812        0.1682601140
 H         -9.8033693307        1.3037944124        0.1062190054
 H         -3.8059070451        3.3134686375        0.0400806360
 H         -2.0786622107        1.5299409436       -0.0692971947
 H         -6.9773114046       -2.4740512194       -0.1341319661
 H         -6.4045399343       -4.8818026646       -0.3215606271
 H         -4.0686513695       -5.5966671076       -0.4966818624
 H         -2.2301718307       -3.9637435844       -0.4466866545
 H         -1.1983546647       -2.8384967866        1.2726422254
 H          2.0919421264       -3.8587427197        0.3181410040
 H          3.8789177509       -5.5737214493        0.2650356622
 H          6.2359749006       -4.9288098299        0.1111166620
 H          6.8918404123       -2.5383569022        0.0203282168
 H          9.8304838759        1.1384373907       -0.3130552434
 H         10.4735701545        3.5335578821       -0.3587224741
 H          8.7796224440        5.2926122661       -0.2068982619
 H          6.3806009664        4.7298332476       -0.0020972858
 H          3.9352234876        3.3566101773        0.2755257430
 H          2.1577056647        1.6515132092        0.4121141768
 H          1.1622721943        0.5139292676       -1.2499469130
  68
  -116.315660081500       0.214108059920218      !
 C        -10.2619851473        0.6452175052        1.6104683753
 C         -9.5774830613        0.9496112507        2.7846329510
 C         -8.1986154873        0.9155659721        2.8398248969
 C         -7.5006474701        0.5693950539        1.6880800365
 C         -8.2090933827        0.2646462764        0.5064989573
 C         -9.5889552485        0.2974493264        0.4508924339
 O         -7.3623516273       -0.0474263955       -0.5162333588
 C         -6.1074240993        0.0528121543       -0.0111045298
 C         -6.1139534467        0.4310242013        1.3479241516
 C         -4.9188733294        0.6242780730        2.0471918519
 C         -3.7149622596        0.4192394181        1.4083251446
 C         -3.7135469633        0.0149800311        0.0721639537
 C         -4.9090927393       -0.1523897944       -0.6744055943
 C         -4.5262531497       -0.4771489621       -2.0168767300
 C         -5.2396144430       -0.7397863265       -3.1772533661
 C         -4.5323284735       -1.0216022256       -4.3318049339
 C         -3.1391825088       -1.0390223850       -4.3386985761
 C         -2.4089960593       -0.7814220750       -3.1918251790
 C         -3.1123798523       -0.4960771047       -2.0331486734
 N         -2.6353620389       -0.2141492821       -0.7622553674
 C         -1.3102129740       -0.2232559752       -0.3944171708
 C         -0.8772010385       -0.7937936198        0.7916866697
 N          0.3942270786       -0.8576108102        1.1415069086
 C          1.3152653340       -0.3066836226        0.2860359988
 N          2.6256794806       -0.2410600192        0.6953011485
 C          3.0324476137        0.0107521860        1.9995861402
 C          2.2762162079        0.1060833825        3.1561843415
 C          2.9416383194        0.3689349455        4.3409167776
 C          4.3231437211        0.5455827200        4.3746484316
 C          5.0832656134        0.4562713978        3.2231381555
 C          4.4349425811        0.1885115088        2.0261456357
 C          4.8878514034        0.0230890754        0.6775986040
 C          6.1152990394        0.0698902013        0.0390368942
 O          7.3234404633        0.3506162568        0.5879141093
 C          8.2268990018        0.2868776233       -0.4317814322
 C          9.5862924928        0.5136019906       -0.3400138798
 C         10.3276822295        0.4017581638       -1.5046801739
 C          9.7283317440        0.0736066906       -2.7183138721
 C          8.3697012492       -0.1534317912       -2.8092080232
 C          7.6037061897       -0.0462160745       -1.6533616566
 C          6.2107072967       -0.1912610302       -1.3438016946
 C          5.0777973045       -0.5354689178       -2.0879357465
 C          3.8442432726       -0.5773162271       -1.4738736916
 C          3.7461577806       -0.2660950148       -0.1159613785
 C          0.8809431150        0.2551037816       -0.9054761346
 N         -0.3876210007        0.2965614305       -1.2673879164
 H        -11.3406175199        0.6830656832        1.6025748835
 H        -10.1398521601        1.2167911325        3.6668204961
 H         -7.6696887529        1.1518719268        3.7502854723
 H        -10.1133746116        0.0623485530       -0.4613169490
 H         -4.9450787660        0.9444320042        3.0765874009
 H         -2.7865859089        0.5979846260        1.9274607527
 H         -6.3184598278       -0.7212049216       -3.1677200173
 H         -5.0663187909       -1.2325933009       -5.2464134749
 H         -2.6182673794       -1.2619656359       -5.2577113406
 H         -1.3307861577       -0.7912817735       -3.1942158654
 H         -1.5767419170       -1.3066753178        1.4363291515
 H          1.2072455299       -0.0313558539        3.1278411764
 H          2.3767355179        0.4434744498        5.2579611970
 H          4.8050818036        0.7548859414        5.3180514054
 H          6.1540633729        0.5870871228        3.2424213609
 H         10.0438958669        0.7674913827        0.6026489881
 H         11.3927801615        0.5737276009       -1.4701726420
 H         10.3419859447       -0.0029525092       -3.6034706126
 H          7.9073642966       -0.4065087862       -3.7508534990
 H          5.1756383396       -0.7741841054       -3.1349830744
 H          2.9721931533       -0.8758157620       -2.0337203769
 H          1.5727655211        0.7886078647       -1.5411493892
  68
  -116.314874205900       9.321152142621750E-002 !
 C         -9.4312496345        3.2561658322       -0.4603949621
 C         -8.4883315784        4.2503066525       -0.2110530092
 C         -7.1604396005        3.9409753051        0.0058906885
 C         -6.7794689087        2.6041404018       -0.0306377891
 C         -7.7479714978        1.6091922003       -0.2816419287
 C         -9.0767899773        1.9178115396       -0.4988231002
 O         -7.1938001753        0.3630548557       -0.2850996954
 C         -5.8695243792        0.5391080370       -0.0474724901
 C         -5.5384825620        1.9000152950        0.1217571246
 C         -4.2196855967        2.2965050815        0.3653853455
 C         -3.2238497118        1.3464338704        0.4320174013
 C         -3.5557063368        0.0049186290        0.2444567485
 C         -4.8853226180       -0.4325518643        0.0195237950
 C         -4.8426170938       -1.8569932973       -0.1248960376
 C         -5.8145738899       -2.8139822442       -0.3778208261
 C         -5.4191874882       -4.1309397083       -0.5187116897
 C         -4.0758942502       -4.4885673289       -0.4335228955
 C         -3.0919348528       -3.5489465614       -0.1782977437
 C         -3.4828313756       -2.2307194572        0.0033997099
 N         -2.7192391878       -1.0963841334        0.2424688964
 C         -1.3535958991       -1.0580583857        0.3873269395
 C         -0.6411749771       -2.0316407362        1.0683776294
 N          0.6755225245       -2.0203750265        1.1792712942
 C          1.3497232331       -0.9908063621        0.5777461998
 N          2.7217728969       -1.0560832224        0.4939499366
 C          3.4345543711       -2.2032763879        0.1702191011
 C          2.9962455957       -3.5138870496        0.0821672582
 C          3.9199979295       -4.4775161940       -0.2835856089
 C          5.2435623023       -4.1447299682       -0.5632154256
 C          5.6872749306       -2.8379444211       -0.4751105877
 C          4.7773334520       -1.8574646348       -0.1067065701
 C          4.8742171070       -0.4395604962        0.0762676395
 C          5.8782320590        0.5063143922       -0.0424896839
 O          7.1602509018        0.3083084396       -0.4384809533
 C          7.7571362135        1.5345052412       -0.4181146471
 C          9.0633822114        1.8184419185       -0.7659430438
 C          9.4688847960        3.1402364635       -0.6815098895
 C          8.5971178949        4.1420476582       -0.2615526012
 C          7.2916747323        3.8575942384        0.0858271189
 C          6.8602178992        2.5378358504        0.0065200875
 C          5.6202838220        1.8612161202        0.2548439862
 C          4.3612924521        2.2721953745        0.7045717269
 C          3.3427686209        1.3500796474        0.8136617792
 C          3.5893911162        0.0194394133        0.4695875002
 C          0.6325766279        0.0242967632       -0.0387621645
 N         -0.6822919731        0.0208136137       -0.1385118404
 H        -10.4607327402        3.5338843574       -0.6286088972
 H         -8.8058460530        5.2821729024       -0.1898121012
 H         -6.4309517156        4.7129335116        0.1968159577
 H         -9.8017156484        1.1434728108       -0.6922080102
 H         -3.9905690488        3.3418505226        0.4988018880
 H         -2.1980342692        1.6257999533        0.6080946787
 H         -6.8492412515       -2.5228820506       -0.4706233820
 H         -6.1568003534       -4.8942371562       -0.7157801532
 H         -3.7924982484       -5.5202722371       -0.5776230353
 H         -2.0537478226       -3.8402449696       -0.1502431501
 H         -1.1586850782       -2.8011419719        1.6228775940
 H          1.9706201163       -3.7666564874        0.2989792637
 H          3.6066066239       -5.5078867474       -0.3591158442
 H          5.9328420728       -4.9240500882       -0.8527762870
 H          6.7126734289       -2.5757105323       -0.6848463456
 H          9.7328827274        1.0384835368       -1.0912357292
 H         10.4824832968        3.3987067169       -0.9479002499
 H          8.9527981333        5.1602522897       -0.2095946994
 H          6.6171513458        4.6354951056        0.4087811503
 H          4.1959198614        3.3050076005        0.9669242172
 H          2.3744544236        1.6489952709        1.1834564360
 H          1.1489319460        0.8090651463       -0.5728280241
  68
  -116.314791467700       8.539761714127878E-002 !
 C         -9.2032373316        3.5110386690       -0.2215684578
 C         -8.1862400409        4.4154968889       -0.5168049617
 C         -6.8635946011        4.0214703614       -0.5474876977
 C         -6.5653439825        2.6902378827       -0.2785807873
 C         -7.6075064597        1.7859115064        0.0160686270
 C         -8.9308116659        2.1805597651        0.0509881814
 O         -7.1283260700        0.5282528485        0.2384091524
 C         -5.7821185631        0.6046513555        0.0828788591
 C         -5.3608863121        1.9127789614       -0.2342775757
 C         -4.0090363847        2.2041328252       -0.4407053893
 C         -3.0733216331        1.1977886234       -0.3425689702
 C         -3.4980229183       -0.0999919240       -0.0580107824
 C         -4.8582363117       -0.4227491606        0.1796488663
 C         -4.9198356742       -1.8299283835        0.4344255399
 C         -5.9669777279       -2.6917636494        0.7260703045
 C         -5.6893673130       -4.0375088972        0.8729292036
 C         -4.3958352494       -4.5228147579        0.6974821866
 C         -3.3377698770       -3.6781495776        0.4081670780
 C         -3.5948132692       -2.3177142712        0.3139507067
 N         -2.7411789332       -1.2565593418        0.0414349866
 C         -1.3719852266       -1.3075651584       -0.0645188620
 C         -0.5894859268       -2.1843437043        0.6711481993
 N          0.7316376065       -2.1861776346        0.6346697363
 C          1.3397024027       -1.2223723276       -0.1277943564
 N          2.7162532559       -1.1876563600       -0.1751648787
 C          3.5425505120       -2.2808442407       -0.3686268032
 C          3.2052480336       -3.6130501870       -0.5425094066
 C          4.2362413742       -4.5128489762       -0.7463457021
 C          5.5658204190       -4.0974992712       -0.7799993789
 C          5.9074754009       -2.7686551057       -0.6050821753
 C          4.8888966822       -1.8496089972       -0.4003128297
 C          4.8610857032       -0.4303860346       -0.1949112996
 C          5.8091042804        0.5699910736       -0.0549707311
 O          7.1591031685        0.4472632579       -0.1078516300
 C          7.6633366956        1.6910848523        0.1350856709
 C          8.9986654741        2.0394815717        0.2007521528
 C          9.2954502535        3.3639314026        0.4763514474
 C          8.2908530929        4.3077097177        0.6762535894
 C          6.9567303058        3.9592861857        0.6089647615
 C          6.6341291517        2.6344911840        0.3372620992
 C          5.4100923126        1.8965351649        0.2124927380
 C          4.0599194194        2.2320131339        0.3461475785
 C          3.0997524383        1.2528681620        0.2118807354
 C          3.4993899722       -0.0558517957       -0.0621693147
 C          0.5639553886       -0.3361812102       -0.8539606234
 N         -0.7561942562       -0.3759157039       -0.8653126128
 H        -10.2269894968        3.8531069714       -0.2074493127
 H         -8.4414664309        5.4434703588       -0.7267441347
 H         -6.0763853529        4.7227205888       -0.7774473746
 H         -9.7146400390        1.4754508051        0.2764041885
 H         -3.7069289699        3.2132368545       -0.6720506737
 H         -2.0261006617        1.3952113306       -0.5021250961
 H         -6.9703907216       -2.3082650667        0.8261851425
 H         -6.4859078474       -4.7281567901        1.1054783578
 H         -4.2128277881       -5.5834766103        0.7810881834
 H         -2.3538199410       -4.0842765438        0.2355413232
 H         -1.0385654320       -2.8396804183        1.4024991578
 H          2.1748416916       -3.9298703120       -0.5142716947
 H          4.0058954034       -5.5581717911       -0.8874121543
 H          6.3416522036       -4.8296559503       -0.9475866453
 H          6.9362910124       -2.4442661811       -0.6280154468
 H          9.7722314287        1.3043428568        0.0472113252
 H         10.3285481773        3.6703255401        0.5403171722
 H          8.5647388248        5.3298527898        0.8909606830
 H          6.1791789847        4.6906718058        0.7671183428
 H          3.7789918016        3.2488068393        0.5698415638
 H          2.0553689384        1.4880383344        0.3445081982
 H          1.0297091912        0.3690400961       -1.5276271538
