111
 energy: -152.363288575133 gnorm: 0.000042564192 xtb: 6.7.1 (edcfbbe)
C            7.98595784112595       -1.81095837369278       -1.21525708985866
C            7.22753096275614       -0.86774231555801       -2.15984668465581
C            7.02998196550650       -1.54462536706469       -3.52349333050196
C            8.08444137749683        0.38361700741278       -2.37003013038266
C            5.86754715248690       -0.54931570763401       -1.55677481714658
C            4.97713077547639       -1.60043768768455       -1.30358564695703
C            3.72991767848976       -1.40954240851814       -0.74448185254203
C            3.35405466385451       -0.11882199675690       -0.40740408416808
C            4.21738303258762        0.95987282282234       -0.68681689521800
C            5.46597396117856        0.74105840350399       -1.25361001883237
C            3.52569812595121        2.15341574325706       -0.28403663712504
C            3.87502661687572        3.49710980434616       -0.30491498587871
C            2.99185929745634        4.44545319248712        0.18387423460730
C            3.29880200033920        5.93566085560668        0.17718725846588
C            3.30412014414852        6.45683142940312        1.62118143485558
C            2.22102426115541        6.66642139772981       -0.63624729348518
C            4.66017108380055        6.25234436887665       -0.44780244463378
C            1.77200266959378        4.00813107562711        0.71547495726932
C            1.40230134869623        2.67907171194162        0.74897588675295
C            2.27531148754563        1.74240348120631        0.22039476954936
N            2.17569278856794        0.36282013832671        0.14184869012552
C            1.08869134669273       -0.41374752832289        0.54268997628797
C            1.30315857068672       -1.58865555070696        1.25965639809103
C            0.22336103831583       -2.38202165803451        1.63250486851823
C            0.42665332985966       -3.63835478721972        2.39762133583116
O           -0.37967450144941       -4.05826530239848        3.19733912889624
C            1.69507383680880       -4.36621469215542        2.10044004611408
C            2.43712481405847       -4.93587537513136        3.13052154029956
C            3.60734208595671       -5.60454512642061        2.80615032574232
N            4.04559058740452       -5.74409142968171        1.56710317613309
C            3.32514117651401       -5.22733739712773        0.58694017927849
C            2.14691185368503       -4.52781179505114        0.79261039552854
C           -1.07446668332917       -1.98907451426714        1.32607585817069
C           -1.29309148693034       -0.82085558568134        0.60293362800951
N           -2.59261488942681       -0.44508156997667        0.26014323381395
C           -3.15700559646349        0.80494712065760        0.43882503524087
C           -2.64304736719875        1.94128630724625        1.04099257859421
C           -3.44923112332500        3.05831007435736        1.11829293952448
C           -4.76053104469595        3.08450022294461        0.62581062903759
C           -5.56816276711752        4.36744000331596        0.75764657911508
C           -5.71390931786868        4.71882017388160        2.24510441910727
C           -4.83813856161035        5.50129251311185        0.02385354351244
C           -6.97190115687855        4.24261008296351        0.15916893968325
C           -5.27493792011635        1.93236466971980        0.05416427489787
C           -4.48400272931154        0.79461231234360       -0.03663370014791
C           -4.72965628885997       -0.53223989526888       -0.53183487545146
C           -5.83233374345417       -1.12889152870505       -1.12873871189582
C           -5.76461720156306       -2.45290334782243       -1.52956742873258
C           -6.93409493719704       -3.17321189083523       -2.18458586950528
C           -6.52003560394040       -3.63096521442891       -3.59033655501982
C           -7.31704435802946       -4.39108282250971       -1.33199526551116
C           -8.17175425502693       -2.28200753399088       -2.32070359072732
C           -4.56573734116821       -3.15069493485367       -1.33211305020767
C           -3.45498464626042       -2.58244284155054       -0.74212548376519
C           -3.54374681557914       -1.26497938234036       -0.32226090432512
C           -0.21026595434593       -0.04131758254017        0.20404051229130
H            8.96959034007203       -2.03699962535946       -1.62161282288819
H            7.45306648148457       -2.74715903968312       -1.07479938139519
H            8.11393835864238       -1.34330079295554       -0.24115624313278
H            6.46868203796472       -0.89196376348867       -4.18909145965635
H            6.48737425125582       -2.48083547806581       -3.42738750256963
H            7.99468571792531       -1.75639694849755       -3.97980877285130
H            9.04567669936501        0.09770622527536       -2.79242575725664
H            7.60664947936132        1.07390923266806       -3.06143698516202
H            8.27044384102040        0.89285783979781       -1.42722628773314
H            5.26455610883523       -2.61040876207503       -1.55263149012172
H            3.07314086940433       -2.25103985691986       -0.58923845920258
H            6.09871087614488        1.59069728576108       -1.44832487869953
H            4.83769918908949        3.77234568369036       -0.70190072462995
H            4.05033037030252        5.92629601494962        2.20909595159917
H            2.33679905722137        6.32025201689160        2.09647517009494
H            3.54338860750340        7.51813087170939        1.63577932283150
H            2.19825148872581        6.28664054512557       -1.65567572702961
H            1.23461857384938        6.53177353818696       -0.20142446901841
H            2.43505017998296        7.73266829783233       -0.66965569176327
H            4.82190635055961        7.32842707195828       -0.43800501049803
H            4.70361413650074        5.91573748929764       -1.48108855105380
H            5.46687215225661        5.78742297293898        0.11417759622817
H            1.08227324212786        4.73081901827383        1.12386903125396
H            0.46315106737608        2.38841655449337        1.19220570194017
H            2.30549884222126       -1.85662695554994        1.55569780679523
H            2.10329864895475       -4.84339252367589        4.15219828487665
H            4.22441216932053       -6.05377012475581        3.57301474174078
H            3.71616597385314       -5.37927950775197       -0.41075053756739
H            1.57998088055041       -4.13606390976323       -0.03886148594553
H           -1.90299589256921       -2.59497406279107        1.65848197548358
H           -1.64895683250306        1.95358863957784        1.46061137372629
H           -3.04163670297924        3.94072673531104        1.58748766396614
H           -6.30881667765444        5.62249661615629        2.36069059955233
H           -4.74659331298370        4.88698024697054        2.71025028902357
H           -6.20995989163255        3.90837905167286        2.77521522081406
H           -3.85536923721401        5.68307470333909        0.44967890901809
H           -4.71247436487575        5.24865272177037       -1.02703846820700
H           -5.41302724571640        6.42261706553940        0.09126344280075
H           -7.49834609463730        5.18865235864626        0.26942011583827
H           -7.54931405586171        3.47667757385488        0.67162202870465
H           -6.92506138708819        4.00585543867886       -0.90132244596457
H           -6.28422168321066        1.88896949115550       -0.31946525435714
H           -6.72258476021452       -0.53957386746343       -1.27127595960023
H           -7.35263947037903       -4.12882612611673       -4.08304304404634
H           -5.68431048852082       -4.32406938516326       -3.55232062368749
H           -6.22460077805442       -2.77401775896913       -4.19237331625070
H           -7.59093894459288       -4.07475660176989       -0.32761753819964
H           -8.16621149521580       -4.90710649098340       -1.77532135088222
H           -6.49455194405740       -5.09641007359746       -1.25369105112243
H           -7.96498978365039       -1.41763145336476       -2.94754753741747
H           -8.97656580941853       -2.84817044999845       -2.78546561191654
H           -8.51846287915789       -1.94335001315139       -1.34711550234111
H           -4.49257588902573       -4.17839097845365       -1.65354457404174
H           -2.54583875223773       -3.15292160135399       -0.62373935060692
H           -0.37864333407886        0.83906264494124       -0.39697582819731
