111
 energy: -152.294188717204 gnorm: 0.000156739732 xtb: 6.7.1 (edcfbbe)
C            8.03092356302304        1.15232259108415        1.75454980201729
C            7.35977022501261       -0.19958593259854        2.03622647839183
C            7.24014137917264       -0.41602267919532        3.55162040054260
C            8.25722758473334       -1.30224238687116        1.46775176674456
C            5.96904954326831       -0.20225050938081        1.42054221402936
C            5.04258588365777        0.76240863548105        1.83855368101697
C            3.76310843515121        0.84170236833505        1.32886046722316
C            3.39162200234609       -0.07009962943861        0.35280327117797
C            4.29546577571298       -1.07045040367987       -0.06401849384684
C            5.57541541661163       -1.12990079610774        0.46693730327485
C            3.59391765592226       -1.87322266326480       -1.03007119504911
C            3.96039292030331       -2.97530948297216       -1.78806479514593
C            3.05107531092334       -3.53366130739600       -2.67452062632290
C            3.38368670814857       -4.74323721851239       -3.53470462784443
C            2.39335552721851       -5.87341557691860       -3.21948029268652
C            4.79958808969198       -5.27072189167251       -3.28652122902362
C            3.27340164059944       -4.35209622369305       -5.01530733899777
C            1.78222456365349       -2.94998487954434       -2.78794485624469
C            1.39094517342695       -1.85409664258265       -2.04579784411571
C            2.30070696750622       -1.31993781310547       -1.14567746060136
N            2.18828092658834       -0.23306035170587       -0.30165344328424
C            1.06933539591296        0.60236690301664       -0.18734324507712
C            1.22136233356679        1.97385936357303       -0.34218944596390
C            0.10731486513081        2.81800452765562       -0.26553382280149
C            0.18560034401788        4.26541919232049       -0.49122461219636
O           -0.79217300385166        4.87524916319990       -0.98802067110500
C            1.40365064964849        4.96157336024377       -0.12971155009830
C            1.68492146896606        6.22375933038184       -0.69619520159465
C            2.83746128856960        6.87820297476148       -0.33307663961915
N            3.69694801244443        6.39240920532371        0.55131723195190
C            3.42992279872959        5.23329442455920        1.13367144168156
C            2.31126932086485        4.48907890813092        0.83875053152666
C           -1.15836341972421        2.24995361117392       -0.07990636748266
C           -1.30621081931836        0.87838994305867        0.05351769737328
N           -2.58050130685143        0.33731747086742        0.25215647215903
C           -3.71305178342308        0.66148490868646       -0.46875768301796
C           -3.86797123757944        1.49547495830439       -1.56672361757712
C           -5.12951551768737        1.61547161775435       -2.11284707144188
C           -6.24485711880671        0.92807239727404       -1.61541580108074
C           -7.59528023570155        1.14043026261720       -2.28171335028265
C           -7.97212773209677        2.62577573721018       -2.18564003117518
C           -7.50192538921176        0.72133924321800       -3.75590110345274
C           -8.71161042716406        0.32353923360107       -1.62502504413626
C           -6.07036111543893        0.07428195865877       -0.53515580621647
C           -4.81390258789155       -0.06329655835550        0.03524918612472
C           -4.31336397678404       -0.85735491172030        1.12655231890453
C           -4.91668892946278       -1.74557799732970        2.00355077412733
C           -4.15981705064764       -2.35716446577447        2.99326899355280
C           -4.75283762614103       -3.34736044217442        3.98371170831277
C           -6.24668989710647       -3.58984617718314        3.75135542647248
C           -4.02486427375055       -4.69219707473328        3.84468833362907
C           -4.57450671996139       -2.80381604251939        5.40855728083027
C           -2.79851669481818       -2.03955026062043        3.08654031796749
C           -2.17277759460695       -1.15899991751195        2.22743653135252
C           -2.93330356368873       -0.57626349309659        1.22429703454353
C           -0.19044340958784        0.04334649319683        0.01493250394628
H            9.03620292632998        1.16468505363277        2.17030343480337
H            7.47229334763458        1.97392765648406        2.19368060412147
H            8.09864827556295        1.32180575653230        0.68193929130617
H            6.66769359840418        0.37794257424209        4.02285328260738
H            8.22863263571292       -0.43776695183181        4.00546769010896
H            6.74434610324935       -1.36238747562065        3.75806831899907
H            9.23877527401190       -1.24616188920998        1.93402842589803
H            7.84538371357119       -2.28776428460716        1.67270530082108
H            8.38868731854127       -1.18495705272061        0.39455188221584
H            5.32810279426478        1.47776935375537        2.59429030756018
H            3.07252312855820        1.58626942473771        1.69236297350408
H            6.24070650745065       -1.90521974146298        0.12581803731573
H            4.95452534040178       -3.37351588088653       -1.67332562469955
H            2.62920206025843       -6.75379139805790       -3.81355431889065
H            1.37086719324300       -5.57973715318321       -3.43932613180784
H            2.45212591956792       -6.14148192352541       -2.16653917432658
H            5.54631392487535       -4.51875145493905       -3.53074482969089
H            4.92662825251552       -5.57880578520781       -2.25121692869743
H            4.97870400009482       -6.13789353936235       -3.91894354494915
H            3.52985946526951       -5.20021320968440       -5.64661531646659
H            3.95634754666083       -3.53533470722629       -5.23970062882921
H            2.26640613410591       -4.03243408497786       -5.26807723452789
H            1.07072237103115       -3.36297014363457       -3.48633409202086
H            0.41029995165563       -1.42274446880109       -2.17788868464941
H            2.19453623616775        2.36774516450941       -0.59156193398074
H            1.00839774652711        6.65291571037846       -1.41667193416852
H            3.09356333429155        7.83564817752377       -0.76575694451400
H            4.14101123801790        4.89885059216045        1.87668465193053
H            2.11522745087481        3.58209733657204        1.38745454474779
H           -2.01502393967508        2.90204063462955       -0.01499790766772
H           -3.03426772912832        2.03533691042361       -1.98799521473337
H           -5.24741649121880        2.27104850495998       -2.96148868853469
H           -8.94442775464257        2.79547526537920       -2.64338352054824
H           -7.24430606302661        3.25429977277131       -2.69059702760809
H           -8.02250073955575        2.93367472359635       -1.14329937793613
H           -8.46721021406918        0.84657475893886       -4.24186905572233
H           -6.77125153409635        1.31872166871724       -4.29360030930337
H           -7.21002488511952       -0.32418754001501       -3.83177969439410
H           -9.65190370918897        0.51954166063110       -2.13637051529733
H           -8.83505723835903        0.59855728550749       -0.58006895742510
H           -8.50940289454413       -0.74295989305634       -1.69344322611165
H           -6.88981557713010       -0.49150383641910       -0.12455040521131
H           -5.97096445109741       -1.93944703564775        1.89902096607559
H           -6.61438599136541       -4.30831104431242        4.48117528347082
H           -6.42764685210920       -3.99736822489898        2.75937923727796
H           -6.81582201876336       -2.67082866808289        3.87049948326245
H           -2.96522966472595       -4.59556117991051        4.06377569439505
H           -4.44934062224087       -5.42022723805063        4.53270208934266
H           -4.12987612275466       -5.07307300106332        2.83083581281555
H           -5.06803414457316       -1.83916809329824        5.50699491527911
H           -5.01311627943037       -3.49134955695963        6.12864317757035
H           -3.52484100536426       -2.67582748241806        5.65735250330222
H           -2.20164099446986       -2.49265558100955        3.86307083409726
H           -1.12622047446230       -0.92498152662611        2.34953781701291
H           -0.30091426756965       -1.02440723718747        0.11629773960353
