111
 energy: -152.293793324169 gnorm: 0.000051620387 xtb: 6.7.1 (edcfbbe)
C            7.88713312842483       -1.81870235478959       -1.70139565946541
C            7.11798582726222       -0.78182310335688       -2.53261036482698
C            6.84653982698443       -1.33843196245247       -3.93763987715740
C            8.00093043238175        0.46085731246527       -2.67598424672290
C            5.79259092384741       -0.48192057429203       -1.84966916557256
C            4.88536906901854       -1.53006087192643       -1.64432934545229
C            3.66580069622164       -1.35363804568014       -1.02443409657147
C            3.33781467793586       -0.08275956036213       -0.57766914194669
C            4.22009433198850        0.99631353876336       -0.80023084393816
C            5.43927464310414        0.79225346234875       -1.42919949092204
C            3.56951793134780        2.16672942551128       -0.27417160200270
C            3.93848247007752        3.50145301182474       -0.19627244766708
C            3.08479774411561        4.41839398741145        0.39997204941585
C            3.41810787499739        5.89844801282615        0.50829258559091
C            3.46885177589558        6.29699266608777        1.99018492649366
C            2.33265779212268        6.71086149529712       -0.21256840087206
C            4.76872152924372        6.24571567717588       -0.12376354302442
C            1.87268131685594        3.95752139303196        0.93088029815910
C            1.48287998832427        2.63572045614298        0.86798935122368
C            2.32863563609291        1.73419388798393        0.24068841910454
N            2.19739666013654        0.37431916676962        0.04925129189861
C            1.10455388122090       -0.41039228557015        0.44525997306345
C            1.32006501810365       -1.55363710895745        1.20122826243549
C            0.23836416484457       -2.34244003880301        1.61103718564128
C            0.37855309991288       -3.51262688907336        2.47948930881687
O           -0.56060549703122       -3.83691952399061        3.24766318509819
C            1.60524546966535       -4.28509852527594        2.43319196547936
C            1.95316110911097       -5.11016632059879        3.52408910172622
C            3.11111296180612       -5.84817033265601        3.46407795021787
N            3.91669639940810       -5.84403879665630        2.41154266165725
C            3.58623921880262       -5.11566444617352        1.35647348525276
C            2.45491403627789       -4.33369741147573        1.31054777488848
C           -1.05983397127333       -1.92915286571727        1.27977941368258
C           -1.26636787363693       -0.79429845265092        0.51483866348656
N           -2.57189816530121       -0.42791402941259        0.15947900535326
C           -3.14416450333811        0.81457279792445        0.32739704245859
C           -2.62885185133080        1.96847121378530        0.89777794920867
C           -3.44185235283896        3.08107108486521        0.96222182828281
C           -4.75984538225533        3.08754216063317        0.48665578331489
C           -5.57594465732274        4.36554555330042        0.60347818688740
C           -5.69789124581084        4.74969184687477        2.08517413700945
C           -4.86731848915578        5.48769785548563       -0.16876215163183
C           -6.98910030215389        4.21628948532868        0.03347187755364
C           -5.27347249049469        1.91970223193234       -0.06024389532504
C           -4.47691228415332        0.78751741589841       -0.13782289039693
C           -4.71290886013006       -0.55053293962769       -0.61232575529159
C           -5.81151136452440       -1.17142537755405       -1.18693480528673
C           -5.72886095505002       -2.50468561496278       -1.56391206239500
C           -6.89491549415927       -3.25126962293993       -2.19291443249884
C           -6.48556980203275       -3.73782687209773       -3.59061569089304
C           -7.25711909935669       -4.45303708706948       -1.30860829527538
C           -8.14339825785779       -2.37715972525470       -2.34078750430887
C           -4.51966409941023       -3.18437017165426       -1.36302341116060
C           -3.41105540860067       -2.59117391351999       -0.79502297798150
C           -3.51377667897828       -1.26479628597199       -0.40168135994072
C           -0.18561369370657       -0.02690448602435        0.08204341947076
H            8.84846530692667       -2.03069290026915       -2.16451755964567
H            7.33683184849584       -2.75170784359863       -1.61995896796262
H            8.06378204913378       -1.43900493358072       -0.69718593868823
H            6.28049793481769       -0.61784174255768       -4.52444917118530
H            6.27937022582920       -2.26401236255140       -3.89630060605495
H            7.78601150664365       -1.53814825434838       -4.44858598293940
H            8.93599214233668        0.18635866273695       -3.16003560040768
H            7.51645390190481        1.21745182042181       -3.28893689600379
H            8.23905108818526        0.88589795288566       -1.70365182882101
H            5.13776002672684       -2.52246027389870       -1.98466532189074
H            2.98524735434647       -2.18183472529462       -0.90530432018171
H            6.09005343874673        1.63694398875257       -1.58121448276334
H            4.89097286115562        3.79862006914546       -0.60187404649444
H            4.21970458788384        5.70744209888782        2.51214562024368
H            2.51159119827015        6.13743358946583        2.47835611076538
H            3.72802968942939        7.34928000499637        2.08585650619307
H            2.27735383406029        6.41824912398859       -1.25913548948434
H            1.35547815872636        6.55574358795011        0.23598600138616
H            2.56483330022054        7.77255773431725       -0.16269354276800
H            4.95040021395772        7.31403727763806       -0.02514539849363
H            4.77980491863209        6.00018454743715       -1.18323518615596
H            5.58078632502326        5.72096961824655        0.37412848280161
H            1.20822724084650        4.65546475908806        1.41659492959205
H            0.55278952574714        2.31465640765611        1.31000063825573
H            2.32370011495523       -1.78898243691862        1.52019235163888
H            1.32178482450214       -5.14244728033662        4.39661796049654
H            3.41604598398768       -6.47360606157502        4.29189974770101
H            4.25495461882196       -5.17550113069801        0.50852060239628
H            2.20624033505720       -3.81221260258028        0.40086322573272
H           -1.89602060341535       -2.50481364330227        1.64457387367139
H           -1.62747198651236        1.99564694668255        1.29747918972015
H           -3.03504267534333        3.97651539370301        1.40631155679541
H           -6.29916744559049        5.65031883271891        2.18993379760481
H           -4.72435939902837        4.93772101788010        2.52902976531944
H           -6.17697398305758        3.94761661632064        2.64275354658368
H           -3.87868054871318        5.68646057931312        0.23522672494952
H           -4.75849225327164        5.21244729789078       -1.21582495433689
H           -5.44844804873025        6.40564160641157       -0.11163759947027
H           -7.52189439847654        5.15957355513682        0.13547233414703
H           -7.55004486327454        3.45557158452016        0.57134081201824
H           -6.96009808937698        3.96014728596275       -1.02314511920689
H           -6.28580253585704        1.86542122606665       -0.42394769076916
H           -6.71228746353725       -0.59894546304858       -1.33184853037209
H           -7.31661073469554       -4.25612673779404       -4.06424955062807
H           -5.64235266742834       -4.42097897065281       -3.54277193693511
H           -6.20439212298018       -2.89249808872896       -4.21545962381432
H           -7.52739655933037       -4.11639222196839       -0.30994805021005
H           -8.10348170131240       -4.98847531538724       -1.73362483251357
H           -6.42617112377458       -5.14693970321607       -1.21994036015527
H           -7.95073566600640       -1.52443689169478       -2.98784484865675
H           -8.94395034649029       -2.96275483192819       -2.78824787856716
H           -8.48908916584816       -2.02177594001313       -1.37283157964651
H           -4.43799130963786       -4.21754722074071       -1.66311980385835
H           -2.49381569089533       -3.14525629109532       -0.66709080139141
H           -0.34188866919948        0.83656987012656       -0.54523999540929
