  53
  -78.9573885577000       0.381524059012391      !
 C          1.7711764579        4.0972783886       -0.4001852504
 C          1.6777036537        3.6539206258        0.9124737131
 C          1.5830286326        2.3065975422        1.1831025746
 C          1.6077689872        1.3754170544        0.1376718735
 P          1.2968707440       -0.3684655632        0.5069226500
 C          2.9503795011       -1.0974253701        0.7933729529
 C          3.0760080824       -2.4846271094        0.7254243390
 C          4.2866238716       -3.0829724806        1.0077194478
 C          5.3689119285       -2.3074232590        1.4017078598
 C          5.2346011035       -0.9316620906        1.5098476953
 C          4.0272972307       -0.3241126972        1.2231434469
 C          0.7068509322       -1.1797422351       -0.9720265599
 C          1.2467737104       -1.6769135019       -2.1236470847
 S         -0.0096339689       -2.1552530728       -3.2419385649
 C         -1.2610720345       -1.6760586188       -2.1183534187
 C         -0.7161682464       -1.1793184290       -0.9688122539
 P         -1.2983137386       -0.3648353064        0.5118828823
 C         -1.6011749756        1.3802342675        0.1422307020
 C         -1.7137300596        1.8243754959       -1.1791756952
 C         -1.7918620594        3.1739021059       -1.4449532355
 C         -1.7448271625        4.1001612133       -0.4104724522
 C         -1.6223174547        3.6643977613        0.9024149812
 C         -1.5374934812        2.3179732008        1.1800868383
 C         -2.9544879148       -1.0859146889        0.8020517515
 C         -4.0248834344       -0.3063502493        1.2366845538
 C         -5.2360848898       -0.9060616268        1.5234494352
 C         -5.3802339780       -2.2805393582        1.4114751699
 C         -4.3041781269       -3.0625332094        1.0134830360
 C         -3.0899004551       -2.4720001475        0.7301550728
 C          1.6896204521        1.8275468527       -1.1830986071
 C          1.7779759019        3.1778397955       -1.4417697016
 H          1.8364226630        5.1537973448       -0.6113353555
 H          1.6727940582        4.3682027897        1.7231756323
 H          1.5017719459        1.9519075321        2.2020590864
 H          2.2221507039       -3.0778264502        0.4257629728
 H          4.3909457463       -4.1553179464        0.9276922414
 H          6.3136714693       -2.7774008224        1.6316715072
 H          6.0766553902       -0.3304895752        1.8213413362
 H          3.9195014746        0.7489450032        1.2973909021
 H          2.2735262441       -1.8186921438       -2.3944255106
 H         -2.2889013105       -1.8176275176       -2.3851581840
 H         -1.7451934107        1.1016298156       -1.9827624163
 H         -1.8873106649        3.5130751455       -2.4665044793
 H         -1.8013779246        5.1560282025       -0.6272226782
 H         -1.5875096078        4.3841353884        1.7076848816
 H         -1.4357266155        1.9690177187        2.1993733916
 H         -3.9088624547        0.7657331313        1.3135930080
 H         -6.0733872409       -0.2998671809        1.8380175173
 H         -6.3275708347       -2.7445013947        1.6424240536
 H         -4.4159731109       -4.1339052488        0.9314734002
 H         -2.2407350490       -3.0705167895        0.4278162185
 H          1.6908729122        1.1104640785       -1.9922285961
 H          1.8515886448        3.5230636959       -2.4631067103
  53
  -78.9569293902000       0.234694632532837      !
 C          4.1483960370        3.9547694833       -0.6082548877
 C          4.3379864176        3.1284775440        0.4926822613
 C          3.4679980469        2.0866094340        0.7362308817
 C          2.4216529974        1.8323285566       -0.1534146092
 P          1.1791083767        0.5701508020        0.2130395924
 C          2.0436086516       -0.7536587920        1.0643406713
 C          1.4053105695       -1.4786448132        2.0787580155
 C          1.9800694344       -2.6246565934        2.5785829566
 C          3.1943672696       -3.0772132738        2.0707673982
 C          3.8232633473       -2.3721532328        1.0501015406
 C          3.2598305365       -1.2246102278        0.5404507588
 C          0.6362363392       -0.0618521763       -1.3869394081
 C          1.2052112783       -0.3843654018       -2.5933737790
 S          0.2150073504       -1.5250085294       -3.4617363472
 C         -0.9652747519       -1.5622171662       -2.1823162432
 C         -0.5998096055       -0.7466357597       -1.1628245651
 P         -1.2016855172       -0.2867162394        0.4796724481
 C         -2.0597212117        1.2688057203        0.1415132424
 C         -3.2348043853        1.2640242037       -0.6125467335
 C         -3.8420413933        2.4596505955       -0.9381246676
 C         -3.2858369776        3.6633543177       -0.5269794224
 C         -2.1131392748        3.6692635958        0.2156466696
 C         -1.5014341167        2.4770966779        0.5486925351
 C         -2.4783390790       -1.4944208356        0.8951106794
 C         -3.6225933988       -1.1340597714        1.6159058751
 C         -4.5007672535       -2.1071450074        2.0396173617
 C         -4.2317314788       -3.4506909603        1.7987689806
 C         -3.0665227094       -3.8159637491        1.1365492432
 C         -2.1820691475       -2.8512786050        0.7053137552
 C          2.2043091199        2.6952909176       -1.2309168265
 C          3.0777084229        3.7369343198       -1.4648955165
 H          4.8260590437        4.7757451539       -0.7888637916
 H          5.1653687414        3.3071552709        1.1641420585
 H          3.6029300844        1.4409989441        1.5939300218
 H          0.4615989085       -1.1178034305        2.4730768088
 H          1.4888033053       -3.1731192789        3.3694171719
 H          3.6441449019       -3.9755829668        2.4649859498
 H          4.7603281433       -2.7311284311        0.6483675717
 H          3.7381980215       -0.6780926251       -0.2614451453
 H          2.1092398061       -0.0278520022       -3.0428133429
 H         -1.8396340278       -2.1720173016       -2.2951228903
 H         -3.6556299439        0.3224404360       -0.9379720589
 H         -4.7504814012        2.4575592121       -1.5229037539
 H         -3.7643552647        4.5954708178       -0.7875110311
 H         -1.6783727970        4.6057599667        0.5330472258
 H         -0.5866554214        2.4707167684        1.1307652046
 H         -3.8230561764       -0.0884888097        1.8084584289
 H         -5.3997205286       -1.8255908962        2.5688087258
 H         -4.9192063259       -4.2087000873        2.1422405923
 H         -2.8484031094       -4.8604967344        0.9662120094
 H         -1.2644784849       -3.1257858017        0.2020987300
 H          1.3609760893        2.5182877951       -1.8852808997
 H          2.9238111494        4.3898234942       -2.3119983034
  53
  -78.9568315455000       0.211610321320071      !
 C          3.8622140416        4.1064319016       -0.6243219060
 C          4.1453809619        3.2845755843        0.4600851486
 C          3.3698029650        2.1720960546        0.7091167386
 C          2.3271799302        1.8429413845       -0.1606934949
 P          1.1871158715        0.4952427499        0.2188786624
 C          2.1423841347       -0.7735376587        1.0508477896
 C          1.5535511312       -1.5631538108        2.0471482658
 C          2.2114285560       -2.6691949379        2.5330779017
 C          3.4596264932       -3.0205314147        2.0256981974
 C          4.0369080960       -2.2556381165        1.0180162681
 C          3.3918068004       -1.1453031096        0.5231558350
 C          0.6224050204       -0.1401534931       -1.3737034254
 C          1.1823071726       -0.4779004254       -2.5808337150
 S          0.1948457975       -1.6438879458       -3.4199756871
 C         -0.9721623251       -1.6696028367       -2.1277596506
 C         -0.6047883332       -0.8340714955       -1.1265633184
 P         -1.1869049569       -0.3647861573        0.5208385073
 C         -1.9551382568        1.2405077827        0.1809770565
 C         -3.0496457475        1.3178094923       -0.6795206957
 C         -3.5832758721        2.5511144894       -0.9973103878
 C         -3.0310566644        3.7092334983       -0.4689652545
 C         -1.9394044604        3.6334398002        0.3839496394
 C         -1.4022170671        2.4026009106        0.7080920974
 C         -2.5558502996       -1.4927870168        0.8834350665
 C         -3.7218711209       -1.0575495918        1.5213656060
 C         -4.6816914382       -1.9732877984        1.8944323004
 C         -4.4754986564       -3.3327555095        1.6864024098
 C         -3.2918418606       -3.7733738050        1.1084903000
 C         -2.3267748584       -2.8661820260        0.7274457897
 C          2.0142067876        2.6991743674       -1.2207750947
 C          2.7928573688        3.8119824029       -1.4595551743
 H          4.4652403432        4.9830537662       -0.8078916897
 H          4.9705880613        3.5233559999        1.1153300680
 H          3.5765355180        1.5303643674        1.5553458516
 H          0.5803078179       -1.2831265324        2.4354624181
 H          1.7599273145       -3.2663738571        3.3122198985
 H          3.9745357070       -3.8879832073        2.4092937433
 H          4.9993292390       -2.5376444201        0.6146663960
 H          3.8311371093       -0.5518798158       -0.2674799739
 H          2.0771992260       -0.1188465837       -3.0460884664
 H         -1.8427036527       -2.2880511128       -2.2226103750
 H         -3.4671319716        0.4097355905       -1.0933260599
 H         -4.4293493986        2.6133648165       -1.6663233170
 H         -3.4497814072        4.6711739190       -0.7245223176
 H         -1.5086350292        4.5349862589        0.7940967010
 H         -0.5521139352        2.3314337664        1.3769314502
 H         -3.8753697170        0.0002011953        1.6884354313
 H         -5.5965016253       -1.6328777078        2.3581626338
 H         -5.2276883696       -4.0451203797        1.9895572119
 H         -3.1237408500       -4.8310337010        0.9637412586
 H         -1.3955611870       -3.1989589974        0.2883506159
 H          1.1730394611        2.4603612821       -1.8582058177
 H          2.5654823468        4.4606399829       -2.2932573673
  53
  -78.9553612155000       4.464984585548053E-002 !
 C          4.9157286451        3.2175997771       -0.9264334617
 C          4.9014464944        2.4690064452        0.2407636773
 C          3.8082599912        1.6817645168        0.5467306483
 C          2.7344067257        1.6152726373       -0.3374029125
 P          1.2366080224        0.6583822505        0.0848980558
 C          1.8472650775       -0.7262770174        1.0654073877
 C          1.2411978893       -1.0411696617        2.2850238601
 C          1.6007155583       -2.1867633202        2.9588943227
 C          2.5578997250       -3.0419405810        2.4194914149
 C          3.1539335180       -2.7377080832        1.2024872188
 C          2.8096360340       -1.5886629143        0.5229369046
 C          0.6717416557       -0.0132613259       -1.4810355970
 C          1.2309095839       -0.4691101050       -2.6398594858
 S          0.0668711457       -1.3791693859       -3.5761436324
 C         -1.1763864476       -1.1280408937       -2.3702074233
 C         -0.7049403037       -0.3656405530       -1.3424817387
 P         -1.2608345321        0.1141877611        0.2905413759
 C         -2.4880286947        1.4180346919        0.0964239121
 C         -2.8409158233        1.9053641340       -1.1655336413
 C         -3.7009536241        2.9766039455       -1.2713872225
 C         -4.1921825573        3.6019003143       -0.1299817030
 C         -3.8072102168        3.1511110842        1.1259666841
 C         -2.9483085625        2.0798717028        1.2443057299
 C         -2.1140044501       -1.3069017121        1.0201087080
 C         -3.3897329691       -1.2406441617        1.5809033895
 C         -3.9808866470       -2.3887105289        2.0666172459
 C         -3.3136398347       -3.6060990187        2.0060470036
 C         -2.0462474405       -3.6738134790        1.4445787012
 C         -1.4454202408       -2.5342644421        0.9536296623
 C          2.7338700343        2.3981882693       -1.4895582140
 C          3.8302935424        3.1824983484       -1.7893359916
 H          5.7689372154        3.8375523585       -1.1588308082
 H          5.7440857705        2.5050092299        0.9159898991
 H          3.7862897813        1.0952754041        1.4555392477
 H          0.4898843584       -0.3720444721        2.6868059127
 H          1.1377713429       -2.4256406125        3.9052834329
 H          2.8350146046       -3.9424225640        2.9463400607
 H          3.8928666779       -3.4059544440        0.7834096098
 H          3.2677680624       -1.3421370716       -0.4255158870
 H          2.2195753570       -0.3329854544       -3.0286785242
 H         -2.1584901163       -1.5214098254       -2.5374260732
 H         -2.4513569966        1.4207010971       -2.0495989569
 H         -3.9929580274        3.3352667211       -2.2478797133
 H         -4.8590298386        4.4457699436       -0.2211943016
 H         -4.1737648594        3.6484682442        2.0125347115
 H         -2.6271580426        1.7343873373        2.2186828742
 H         -3.9156976653       -0.2979696970        1.6206139678
 H         -4.9699955077       -2.3377719631        2.4983722276
 H         -3.7826635135       -4.4979787717        2.3935852487
 H         -1.5268655773       -4.6195186479        1.3922280495
 H         -0.4540100855       -2.5762587010        0.5223499495
 H          1.8770633812        2.3690907627       -2.1491457808
 H          3.8391737313        3.7738359070       -2.6934748512
  53
  -78.9552676606000       4.044130009810334E-002 !
 C          5.0142907584        3.1091070431       -0.9557975750
 C          4.9777613997        2.3618169966        0.2117476137
 C          3.8554604409        1.6200074776        0.5259160524
 C          2.7737756644        1.5966056166       -0.3505731228
 P          1.2459034658        0.6888811313        0.0754826564
 C          1.8133752387       -0.7023310308        1.0726829283
 C          1.2025163907       -0.9781633242        2.2998388118
 C          1.5198349178       -2.1293600637        2.9853935827
 C          2.4388922339       -3.0282360124        2.4513063667
 C          3.0415260095       -2.7613138372        1.2282596693
 C          2.7396596601       -1.6074844607        0.5371345522
 C          0.6744719696        0.0186903755       -1.4887953265
 C          1.2316474413       -0.4436021405       -2.6461246346
 S          0.0606265420       -1.3438801691       -3.5831341685
 C         -1.1818096316       -1.0804696108       -2.3790620969
 C         -0.7050651426       -0.3213643720       -1.3508793615
 P         -1.2566164914        0.1539946861        0.2843956510
 C         -2.5240037202        1.4216548328        0.1030774267
 C         -2.9137338082        1.8876858130       -1.1560914354
 C         -3.8084143965        2.9309453597       -1.2544315040
 C         -4.2984579092        3.5499219383       -0.1089802010
 C         -3.8763531132        3.1222687296        1.1429377656
 C         -2.9823833010        2.0792901402        1.2539236426
 C         -2.0680469067       -1.2899794135        1.0198611119
 C         -3.3269910241       -1.2480748242        1.6194058791
 C         -3.8890394776       -2.4101334018        2.1071328417
 C         -3.2084317897       -3.6179729956        2.0104442130
 C         -1.9584276979       -3.6615805578        1.4091650158
 C         -1.3873657479       -2.5077585347        0.9153258160
 C          2.7968957895        2.3789293246       -1.5028166264
 C          3.9219692009        3.1183232169       -1.8105960434
 H          5.8908596534        3.6927604851       -1.1951404742
 H          5.8258738774        2.3630274955        0.8810214844
 H          3.8160665952        1.0366335045        1.4360623625
 H          0.4821006672       -0.2738721451        2.6982527002
 H          1.0530682149       -2.3380803288        3.9373496001
 H          2.6815620968       -3.9336311796        2.9866482379
 H          3.7518341583       -3.4628591233        0.8138768780
 H          3.2026814545       -1.3900261457       -0.4162177321
 H          2.2230108477       -0.3195920687       -3.0320959132
 H         -2.1654899527       -1.4699467084       -2.5461254167
 H         -2.5225760101        1.4101943348       -2.0440851174
 H         -4.1264068856        3.2744440396       -2.2286388789
 H         -4.9926105181        4.3720851980       -0.1942642784
 H         -4.2417002265        3.6157520231        2.0322066889
 H         -2.6319718026        1.7533311448        2.2246914806
 H         -3.8639426106       -0.3132176623        1.6877885459
 H         -4.8651757676       -2.3776765129        2.5691834857
 H         -3.6543517158       -4.5209438304        2.3995242100
 H         -1.4291702398       -4.5995732451        1.3268224271
 H         -0.4100904062       -2.5330198303        0.4520867893
 H          1.9351469454        2.3850194742       -2.1565712194
 H          3.9485794038        3.7085802734       -2.7150996012
  53
  -78.9552180444000       3.837276394038040E-002 !
 C          5.1051705705        2.9438077370       -1.0880032354
 C          5.0595845770        2.2107128955        0.0879725722
 C          3.9111088059        1.5253454887        0.4348349927
 C          2.8106643362        1.5440258807       -0.4175746742
 P          1.2531952251        0.7006124102        0.0384667714
 C          1.7795374224       -0.6718300946        1.0831998782
 C          1.1861960333       -0.8509656051        2.3369629223
 C          1.4722100743       -1.9729284107        3.0816882370
 C          2.3408239345       -2.9384800693        2.5816728590
 C          2.9242351501       -2.7686074761        1.3322440284
 C          2.6542543994       -1.6445202609        0.5816613003
 C          0.6573036707        0.0243503698       -1.5141989761
 C          1.1930655430       -0.4500553430       -2.6763875562
 S         -0.0110109647       -1.3037268105       -3.6132798589
 C         -1.2392735539       -1.0041243222       -2.4024547475
 C         -0.7330785325       -0.2666192367       -1.3720401117
 P         -1.2477348907        0.1900981465        0.2811331916
 C         -2.5404632242        1.4379845297        0.1559206708
 C         -2.9583249751        1.9342642047       -1.0823848650
 C         -3.8705411512        2.9656690232       -1.1353441442
 C         -4.3496946313        3.5439095311        0.0353182938
 C         -3.8994603742        3.0873658314        1.2672335916
 C         -2.9881491942        2.0556769290        1.3328978573
 C         -2.0129233064       -1.2797815422        1.0173935453
 C         -3.2711584678       -1.2793641810        1.6196721118
 C         -3.8051124085       -2.4637388923        2.0845904223
 C         -3.0982833796       -3.6534844289        1.9615853278
 C         -1.8491106200       -3.6561388713        1.3571756945
 C         -1.3066024439       -2.4801037998        0.8850994629
 C          2.8444360411        2.3137961248       -1.5779300080
 C          3.9953110072        2.9970037970       -1.9181679413
 H          6.0027524502        3.4826675334       -1.3529840195
 H          5.9218648945        2.1781558484        0.7380215618
 H          3.8659716423        0.9526900082        1.3514574439
 H          0.5060739245       -0.0939324381        2.7084420267
 H          1.0212011259       -2.1062287273        4.0542250130
 H          2.5611667771       -3.8196046339        3.1647843571
 H          3.5955954334       -3.5221903877        0.9455226855
 H          3.1029297117       -1.5019959280       -0.3924930050
 H          2.1869209561       -0.3576365758       -3.0650098663
 H         -2.2364976790       -1.3575940491       -2.5690268841
 H         -2.5772060698        1.4866962900       -1.9890130001
 H         -4.2121288600        3.3310604705       -2.0926823669
 H         -5.0573872149        4.3574078101       -0.0142667253
 H         -4.2557558925        3.5502527110        2.1761534813
 H         -2.6170123831        1.7061194826        2.2875883782
 H         -3.8300613309       -0.3593533180        1.7076491492
 H         -4.7812310843       -2.4633028613        2.5476930927
 H         -3.5228987988       -4.5743668404        2.3320457272
 H         -1.2984486390       -4.5797086422        1.2546040894
 H         -0.3310963739       -2.4747481831        0.4177481162
 H          1.9695890764        2.3536067503       -2.2129925116
 H          4.0284263529        3.5779754665       -2.8285399751
  53
  -78.9550869217000       3.340129163082178E-002 !
 C          2.9523505903        4.0820228445       -0.9641400658
 C          3.6643577958        3.3203877485       -0.0463335527
 C          3.1770082522        2.1017091435        0.3805570828
 C          1.9629808120        1.6311594583       -0.1179619112
 P          1.2502073942        0.0239916759        0.3320174677
 C          2.6038978810       -0.9608396676        1.0029797868
 C          3.0739159238       -0.6681796055        2.2915869354
 C          4.0493729919       -1.4547676212        2.8655483928
 C          4.5427938074       -2.5616707914        2.1871792124
 C          4.0394561001       -2.8856099194        0.9315864731
 C          3.0645569912       -2.1065821619        0.3474291356
 C          0.6981227973       -0.7420371780       -1.1886847159
 C          1.1765160572       -0.8899170718       -2.4577643067
 S         -0.0700367720       -1.5007674150       -3.5242410971
 C         -1.2440673579       -1.5113888125       -2.2286892319
 C         -0.6850518972       -1.0706230561       -1.0632817882
 P         -1.2563983426       -0.5027513391        0.5409312234
 C         -1.7702194569        1.2169425369        0.3678465884
 C         -2.6480499801        1.5843279002       -0.6613985411
 C         -2.8942340053        2.9186561823       -0.9020989707
 C         -2.2835773929        3.8989650315       -0.1292484469
 C         -1.4145598805        3.5361429394        0.8953962171
 C         -1.1523353354        2.2069372251        1.1394459161
 C         -2.8137033818       -1.4212818931        0.8088767844
 C         -3.9002227286       -0.8184572812        1.4373506312
 C         -5.0466796300       -1.5507631315        1.6781690873
 C         -5.1033684229       -2.8915120494        1.3285784057
 C         -4.0070372501       -3.5041405968        0.7397639344
 C         -2.8582738163       -2.7778405479        0.4949962930
 C          1.2524401558        2.3939000092       -1.0495990677
 C          1.7482848803        3.6112299640       -1.4669285464
 H          3.3381763158        5.0372171530       -1.2871846072
 H          4.6060264344        3.6832589446        0.3396380342
 H          3.7397166466        1.5090695775        1.0868232357
 H          2.6691265226        0.1837615580        2.8224161611
 H          4.4237476817       -1.2159345530        3.8507460302
 H          5.3027769395       -3.1797632637        2.6404358005
 H          4.4129347263       -3.7558827115        0.4114171410
 H          2.6659333765       -2.3588441572       -0.6248055823
 H          2.1621191864       -0.7273785853       -2.8444624159
 H         -2.2396993449       -1.8508660296       -2.4299005006
 H         -3.1163471883        0.8129418083       -1.2584579504
 H         -3.5670684752        3.2038694883       -1.6985160528
 H         -2.4828215873        4.9418316349       -0.3238050065
 H         -0.9425171785        4.2996762846        1.4965599579
 H         -0.4721044707        1.9092838236        1.9282400640
 H         -3.8460109185        0.2274682929        1.7081446368
 H         -5.8988838315       -1.0775660048        2.1441306936
 H         -5.9989411832       -3.4622738334        1.5248347973
 H         -4.0490010208       -4.5513751876        0.4775515503
 H         -1.9934904295       -3.2455813382        0.0439552718
 H          0.3101777229        2.0266510145       -1.4328021043
 H          1.1938161549        4.1971975560       -2.1851870802
  53
  -78.9543494737000       1.530578560991521E-002 !
 C          3.3223265100        3.8587908535       -1.2791394661
 C          2.1249466627        3.9623594020       -0.5805993659
 C          1.5291818512        2.8358267948       -0.0531801047
 C          2.1393201035        1.5910149360       -0.2010558221
 P          1.2977850379        0.0603805113        0.2920158637
 C          2.6385053569       -1.0081893248        0.8768889982
 C          2.5757234388       -2.3886505072        0.6633196648
 C          3.5074242186       -3.2202361483        1.2471088990
 C          4.4831750321       -2.6973205357        2.0865307623
 C          4.5204567037       -1.3315201345        2.3410473118
 C          3.5938730911       -0.4928237660        1.7613659034
 C          0.6666360023       -0.7239021567       -1.1996229788
 C          1.1242699742       -0.9814781270       -2.4579946013
 S         -0.1835842217       -1.4958400954       -3.5024820108
 C         -1.3456847367       -1.3333158097       -2.2107452729
 C         -0.7423152770       -0.8970143001       -1.0691404562
 P         -1.2535421830       -0.3411826355        0.5538088189
 C         -1.9126379823        1.3363624058        0.3988390273
 C         -2.6113834390        1.7206285392       -0.7485525473
 C         -3.0453208504        3.0237032519       -0.8791474221
 C         -2.7960892997        3.9523560806        0.1222627895
 C         -2.0977621170        3.5730727640        1.2628897726
 C         -1.6499544610        2.2757608166        1.3991791835
 C         -2.7414395684       -1.3478113665        0.9183233891
 C         -3.8393063291       -0.8010343063        1.5768070651
 C         -4.9234631355       -1.6012400762        1.8834779659
 C         -4.9076274576       -2.9498918273        1.5634216782
 C         -3.7998591230       -3.5034834143        0.9385987197
 C         -2.7115759624       -2.7105594847        0.6322916789
 C          3.3345944040        1.4832857347       -0.9226815737
 C          3.9176299510        2.6174583998       -1.4490547339
 H          3.7849661770        4.7417151264       -1.6938079639
 H          1.6566073300        4.9272704677       -0.4517022394
 H          0.5943056743        2.9109391133        0.4827668408
 H          1.8108877899       -2.7864624286        0.0097502241
 H          3.4757892950       -4.2832517550        1.0556010238
 H          5.2041012383       -3.3530365936        2.5510945925
 H          5.2744239033       -0.9276343813        3.0013081260
 H          3.6140777545        0.5724678137        1.9519502331
 H          2.1200092133       -0.9505390303       -2.8497246700
 H         -2.3684307767       -1.5995168947       -2.3892359891
 H         -2.8045990831        0.9914827889       -1.5229865024
 H         -3.5856324323        3.3212730963       -1.7663411453
 H         -3.1424597415        4.9691360958        0.0149753622
 H         -1.9039495640        4.2961756322        2.0422282702
 H         -1.0987454061        1.9675959660        2.2786940925
 H         -3.8465158076        0.2523287675        1.8211901426
 H         -5.7837415336       -1.1729937679        2.3771451156
 H         -5.7551835775       -3.5724262253        1.8090439578
 H         -3.7851217919       -4.5563928419        0.6971015857
 H         -1.8383629093       -3.1327337451        0.1533188732
 H          3.7998535944        0.5153110019       -1.0454658562
 H          4.8443057371        2.5342728148       -1.9991195773
