  73
       -119.46242880
 C         -6.5887492886        3.5855514347        0.1712169912
 C         -5.2123532886        3.7527442159        0.1676450136
 C         -4.3634233221        2.6549929163        0.1133084739
 C         -4.9204236472        1.3968915649        0.0632134684
 C         -6.3111468130        1.2218793750        0.0663315493
 C         -7.1526764611        2.3205070283        0.1203252628
 C         -6.5976293310       -0.2037407295        0.0093587270
 C         -7.7989232761       -0.8929193692       -0.0127748062
 C         -7.7679529936       -2.2771599602       -0.0703599789
 C         -6.5626364456       -2.9619529276       -0.1047221562
 C         -5.3551383911       -2.2765583949       -0.0826127045
 C         -5.3825119097       -0.9010985283       -0.0257752651
 C         -4.2067220231        0.0588575048        0.0051524597
 C         -3.3970038485       -0.0613909244       -1.2601740688
 C         -4.0275933665        0.1330207070       -2.4795117040
 C         -3.3338711452        0.0252020593       -3.6706462815
 C         -1.9828555088       -0.2847530865       -3.6452689839
 C         -1.3375424310       -0.4814202267       -2.4431828049
 C         -2.0321941332       -0.3717895189       -1.2330346453
 N         -1.3739022897       -0.5695739255       -0.0357546858
 C          0.0154942853       -0.8871996630       -0.0525406167
 C          0.4186647584       -2.2173750505       -0.0744764679
 C          1.7648351817       -2.5335447292       -0.0754483537
 C          2.7369049169       -1.5323661022       -0.0543541586
 N          4.0399726082       -1.8097130114       -0.0420439009
 C          4.9534404219       -0.8470723021       -0.0199740675
 C          6.3448073068       -1.1532798258        0.0075937320
 C          6.7942255503       -2.4845665069        0.0214499626
 C          8.1412909516       -2.7395912041        0.0569496855
 C          9.0246648974       -1.6506363133        0.0770778600
 N          8.6308326723       -0.4046109011        0.0610662555
 C          7.3263594195       -0.1292310629        0.0268510775
 C          6.9059177506        1.2486522354        0.0110890017
 N          7.8349222022        2.2056985066        0.0153949415
 C          7.4660180065        3.4594334675        0.0039543844
 C          6.1252092331        3.8697037022       -0.0096583893
 C          5.1497071047        2.9056846355       -0.0155793799
 C          5.5200085941        1.5502572690       -0.0077725155
 C          4.5358960476        0.5192130499       -0.0191726331
 N          3.2411391330        0.8094122963       -0.0289225909
 C          2.3148030134       -0.1496757780       -0.0411059971
 C          0.9521509594        0.1381990536       -0.0388215766
 C         -2.0166416211       -0.4578877273        1.1814664898
 C         -1.3053433346       -0.6459131619        2.3720276169
 C         -1.9352279108       -0.5361699754        3.5933932195
 C         -3.2871530742       -0.2371046579        3.6578563602
 C         -3.9968114227       -0.0493243039        2.4861104954
 C         -3.3817452794       -0.1549543144        1.2481171793
 H         -7.2297188105        4.4538053399        0.2147554920
 H         -4.7955501436        4.7481222446        0.2082928928
 H         -3.2909843555        2.7854289680        0.1112599789
 H         -8.2253197033        2.1959376555        0.1238293064
 H         -8.7398384274       -0.3637585824        0.0137963354
 H         -8.6946741912       -2.8316708970       -0.0884673179
 H         -6.5634010778       -4.0409513799       -0.1493134492
 H         -4.4161779360       -2.8102880741       -0.1100845945
 H         -5.0807743443        0.3720281318       -2.4880581754
 H         -3.8418895764        0.1802368307       -4.6096704450
 H         -1.4281159656       -0.3738034137       -4.5670794081
 H         -0.2862096637       -0.7222462072       -2.4304762829
 H         -0.3256586008       -2.9988516989       -0.0874032402
 H          2.0921944007       -3.5607701589       -0.0889618448
 H          6.0559160855       -3.2732739547        0.0053042461
 H          8.5215410616       -3.7489776995        0.0703784274
 H         10.0950562716       -1.8060091345        0.1077226029
 H          8.2676758663        4.1861960539        0.0058247880
 H          5.8773008585        4.9195657981       -0.0158924440
 H          4.0968801485        3.1479578728       -0.0271584272
 H          0.6363272030        1.1692301839       -0.0246733970
 H         -0.2531052791       -0.8784920197        2.3303745752
 H         -1.3667526725       -0.6847152787        4.4990148988
 H         -3.7837276461       -0.1501923770        4.6117186049
 H         -5.0506812650        0.1837966725        2.5251860066
