73
 energy: -119.558668045547 gnorm: 0.000055008471 xtb: 6.7.1 (edcfbbe)
C           -7.00667520064521        2.96787668282144        1.41834096719036
C           -5.66354535548966        3.21063835104439        1.66423355385501
C           -4.68980889148086        2.31784922272203        1.23513921390411
C           -5.08754762608025        1.18509615512284        0.55950637911556
C           -6.44441097169143        0.93539013178420        0.30846821418049
C           -7.41133838561453        1.82935055666348        0.73892539020601
C           -6.55667126128989       -0.32132540834654       -0.41797472236536
C           -7.66408452485003       -1.00215612408903       -0.89697229275807
C           -7.46798957629145       -2.19857848612946       -1.56901728638588
C           -6.19193080361290       -2.70659838635388       -1.76062789127164
C           -5.07825475916465       -2.02846548284282       -1.28203374473629
C           -5.26863377939938       -0.83987719090436       -0.61246308183628
C           -4.22060789772571        0.07251391325069       -0.00016609499467
C           -3.29118166239915        0.59503773332297       -1.06805452917624
C           -3.84178656825076        1.30345281487444       -2.12707039776799
C           -3.06060820400080        1.76861280871145       -3.16749474190818
C           -1.70253079569642        1.50047463433813       -3.15945869627900
C           -1.13765789380037        0.79859250160874       -2.11376021324664
C           -1.91487593681473        0.35272048353442       -1.04105264549145
N           -1.33999974522395       -0.35794092669281        0.01100398570242
C            0.03513812818894       -0.68079855552327       -0.01979682687456
C            0.40724647673888       -2.04322181256649       -0.14472722257547
C            1.71784795605796       -2.41222248786122       -0.19137786255775
C            2.73058900056954       -1.42952359882195       -0.10962502987673
N            4.01904173728361       -1.79183311695175       -0.14876182193593
C            4.93371211113386       -0.84194350867550       -0.06470240866066
C            6.33093457558685       -1.20857914311306       -0.10020281568870
C            6.73346078182907       -2.54358650740778       -0.22038862028102
C            8.07916617703747       -2.83626373064172       -0.24979266984872
C            8.98509585814396       -1.77840284634521       -0.15688821560028
N            8.62763364773222       -0.51996346212757       -0.04094228052163
C            7.32944847165652       -0.21818214522262       -0.01069472074417
C            6.95362157803754        1.18178563736494        0.11818945963192
N            7.92777112818220        2.08831723759224        0.19986476791187
C            7.60767542598363        3.35656549906771        0.31800622092412
C            6.29319129635307        3.82353688290075        0.36268472369157
C            5.27318600531359        2.90135811201234        0.27860753091790
C            5.59245006889462        1.54464413946267        0.15374825526596
C            4.56376505286251        0.53285170906482        0.06126742700507
N            3.29675629614896        0.90203683494807        0.09569940475019
C            2.35974515098196       -0.05564392514902        0.01370181402758
C            0.99619371762885        0.29558560856527        0.06136653881022
C           -2.10181841220307       -0.81312756565518        1.08381909933449
C           -1.48132391518150       -1.41987177871233        2.18021716371839
C           -2.22256879766831       -1.88973215843896        3.24551825901888
C           -3.59989289328948       -1.74910133314172        3.25229329413401
C           -4.21628392683572       -1.11264839101122        2.19147152398995
C           -3.48698356691211       -0.63650353344362        1.11118697737885
H           -7.74722378441622        3.67606334035041        1.76146806032565
H           -5.37086591573525        4.10449482028172        2.19574841108060
H           -3.64368647527477        2.50817279352955        1.42793784449668
H           -8.45863780769045        1.64485141678774        0.55013022784388
H           -8.65993163507877       -0.61025247150385       -0.75161595512899
H           -8.32018897816466       -2.74306724812998       -1.94969115119680
H           -6.06213385386522       -3.64031734449405       -2.28833794308429
H           -4.08474460176581       -2.42528049205974       -1.43412528441248
H           -4.90688375824374        1.48458096817725       -2.13098996069241
H           -3.50760885598544        2.32103569630090       -3.97959903962481
H           -1.07463011669164        1.83456211240355       -3.97220479906333
H           -0.08004618602117        0.58693868739858       -2.13659690039945
H           -0.37560144814068       -2.78419464116475       -0.21155022323096
H            2.01535746546001       -3.44391735148899       -0.29515949042001
H            5.97623296614820       -3.30995345553279       -0.28782721017202
H            8.42933241920151       -3.85219328817789       -0.34176459175917
H           10.05270698733157       -1.95601596614526       -0.17648373241300
H            8.44412220904105        4.04084516927909        0.37989833765697
H            6.08823820108143        4.87791940071040        0.46014150628210
H            4.23322643175824        3.18930939915809        0.30626117200939
H            0.73401712306424        1.33760357678022        0.16225235852235
H           -0.40666760371811       -1.51763519029547        2.20231437636319
H           -1.71733651327098       -2.36106259127296        4.07554064288387
H           -4.18613225230053       -2.11804117748048        4.07974885401585
H           -5.28805944204575       -0.97679830864644        2.19424845524391
