73
 energy: -119.512477539447 gnorm: 0.000047514888 xtb: 6.7.1 (edcfbbe)
C           -6.69326747522365        3.22386662254163        1.33927705809441
C           -5.32190468750039        3.39989202440875        1.44703555721120
C           -4.44261716689025        2.41255509108966        1.02028550215763
C           -4.96458709107831        1.25531852141751        0.48632518782434
C           -6.34987481337076        1.07199408835838        0.37415792536018
C           -7.22155355911817        2.06005961826386        0.80246500031830
C           -6.59803069970319       -0.23215192246239       -0.22305755593984
C           -7.78089419237299       -0.87936940127897       -0.54152216736303
C           -7.71427800051781       -2.14018131584990       -1.11368657077022
C           -6.49165854434989       -2.74436109833753       -1.36512382116123
C           -5.30204826177858       -2.10081201516944       -1.04787188826758
C           -5.36521090664465       -0.84847533427261       -0.47831882266812
C           -4.21324821368249        0.04518991904850       -0.04453586965752
C           -3.36239249617102        0.42215352671601       -1.22876135226806
C           -3.95654162208123        1.06226207981292       -2.30672374588178
C           -3.22330395267718        1.41740710972595       -3.42374020733926
C           -1.86713690400346        1.12713925575115       -3.46997487558976
C           -1.25702204584830        0.49265481896850       -2.40969623306614
C           -1.99140379812593        0.13342557136909       -1.27194612644959
N           -1.36767189921373       -0.50021059594254       -0.21526420717428
C            0.02428963045801       -0.79651107804482       -0.31026833036795
C            0.43136020742698       -2.04306104817867       -0.77414068017717
C            1.77806521073163       -2.34278061321802       -0.86363524649563
C            2.74713638361692       -1.40754739086267       -0.49507416077443
N            4.05328998363583       -1.67813959051030       -0.57064055520758
C            4.96163896663020       -0.77450193052196       -0.21427611813141
C            6.35471014503724       -1.07119380103339       -0.29186503210528
C            6.80760690488649       -2.32262444746849       -0.74337974852752
C            8.15587932463071       -2.57022829371744       -0.80165831622455
C            9.03516613346060       -1.55363993366213       -0.40343982158859
N            8.63977081259122       -0.38053706767990        0.02053042667230
C            7.33220485611491       -0.11525392970119        0.08559540787992
C            6.90817903912362        1.17979252099704        0.55274218940529
N            7.83693421743101        2.07352125203491        0.90409889155761
C            7.46228206166957        3.25240345620019        1.33107407436302
C            6.12155679127787        3.64562574213522        1.44369591294806
C            5.14863238536080        2.74530225271733        1.08939653829719
C            5.52226955865924        1.47132785185732        0.62860480110471
C            4.54124255644368        0.50592500361030        0.25175233055547
N            3.24459647238196        0.78873606988478        0.33220078913623
C            2.32216036936362       -0.11371790806415       -0.01915576342454
C            0.95853921467467        0.16130260367599        0.06341388748610
C           -2.04966416411416       -0.86014020095215        0.93051656621093
C           -1.37029848693783       -1.47564675838029        1.99002136899099
C           -2.03932248206873       -1.83930035575024        3.13853646468898
C           -3.40057691592893       -1.59884473700251        3.25984786839981
C           -4.07806988899871       -0.98884139666191        2.22050344986617
C           -3.42373937903925       -0.61405909116280        1.05600311846050
H           -7.35804331673564        4.00532323558435        1.67799656753815
H           -4.93178562237004        4.31495566417715        1.86800522728515
H           -3.37464030483277        2.55223316090188        1.10582441218263
H           -8.29011207049050        1.92796911433845        0.72048289208737
H           -8.73538709691246       -0.41297303368229       -0.34813539680235
H           -8.62680054158037       -2.65967293441910       -1.36811391981202
H           -6.46287679664839       -3.72701547996190       -1.81274365133467
H           -4.35096931627862       -2.57404393458693       -1.24491942682376
H           -5.01324701785849        1.28100535635850       -2.26304450514393
H           -3.70402659473785        1.91462725172181       -4.25187162524376
H           -1.28216256960007        1.39580815255671       -4.33664484792103
H           -0.20249337049939        0.26889547362708       -2.45222176840619
H           -0.30909250724569       -2.77380521481656       -1.06111276547227
H            2.10838933081318       -3.30542839573275       -1.22057483455129
H            6.07248794425006       -3.05939195423403       -1.03379274213251
H            8.53880051710345       -3.51897570265834       -1.14320561591699
H           10.10678391367436       -1.70370025779824       -0.43136136569376
H            8.26385377307252        3.92844324799632        1.59965718606285
H            5.87105323269799        4.63200446637356        1.80112358816893
H            4.09580006900357        2.97987155722708        1.15134930934213
H            0.64310745107737        1.12851620303863        0.42226755083671
H           -0.31126464847853       -1.66260440707870        1.90323240713351
H           -1.49613502884420       -2.31237410846814        3.94265959947908
H           -3.92762828201401       -1.88308676072654        4.15732177722354
H           -5.13729200117476       -0.79630757320548        2.30655850603630
