73
 energy: -119.512480254169 gnorm: 0.000138704878 xtb: 6.7.1 (edcfbbe)
C           -6.43613148514515        3.64934976299227        0.09089606620256
C           -5.05387200182357        3.75625124076865        0.06053591208424
C           -4.25392562974930        2.62100050605468        0.02804630686282
C           -4.86600138152382        1.38731132322587        0.02663171474627
C           -6.26277419894780        1.27261511478120        0.05462461446577
C           -7.05482545287260        2.40886061014702        0.08773975490752
C           -6.61241131733668       -0.14057216819540        0.04047800519215
C           -7.84303516993225       -0.77676162271141        0.05572045015246
C           -7.87396196099768       -2.16255083192175        0.03378828325435
C           -6.70061399824737       -2.90082382178829       -0.00230382495458
C           -5.46345338899304       -2.26905083955902       -0.01692253360284
C           -5.42972201259507       -0.89246658660899        0.00436408786834
C           -4.21067214911313        0.01490927727056       -0.00362376088145
C           -3.41934203090702       -0.16050167749387       -1.27293216742517
C           -4.06653626801783       -0.02554805500750       -2.49261234980669
C           -3.38266857047805       -0.15972994999431       -3.68666098658274
C           -2.02170458807217       -0.42980444666805       -3.66656323217814
C           -1.35989444559096       -0.56945176780857       -2.46599244744190
C           -2.04665119774678       -0.44300076257456       -1.25133642087340
N           -1.37338144820362       -0.59343924938405       -0.05500808999638
C            0.01998507095278       -0.89803234885885       -0.08014174405881
C            0.43463916673260       -2.22265041923910       -0.17382717339539
C            1.78319998873696       -2.52648233019980       -0.19534207361273
C            2.74659148303620       -1.51850196784721       -0.12151429813598
N            4.05440628890067       -1.79051272025618       -0.13648354498190
C            4.95750591622568       -0.81721749513758       -0.06054697176710
C            6.35262294253690       -1.11419276171501       -0.07199453875425
C            6.81354515880469       -2.43831652528850       -0.16809333171725
C            8.16357015811615       -2.68291982538790       -0.17606284905924
C            9.03661936853263       -1.58989753113120       -0.08569811669553
N            8.63379845995258       -0.34829303531874        0.00640496675393
C            7.32432331185887       -0.08454169887793        0.01502344705809
C            6.89205159487172        1.28602200360049        0.11471394138549
N            7.81514309207792        2.24815747796660        0.19800269925396
C            7.43290830438829        3.49630225376107        0.28992580789528
C            6.08959383997845        3.89627369506480        0.30430943294350
C            5.12226864197625        2.92679770609296        0.21933700447569
C            5.50417815419352        1.57787878265821        0.12201887098103
C            4.52923408344311        0.53949483025814        0.03548672532390
N            3.23083435220949        0.82495703744167        0.04789928022323
C            2.31378397747040       -0.14576361032335       -0.02500281834630
C            0.94849837957082        0.13266165249990       -0.00827824322753
C           -2.01172259864572       -0.48477467669275        1.16495109982068
C           -1.29359606355038       -0.66776703139639        2.35393250978997
C           -1.92016956602448       -0.56887616082212        3.57726718356507
C           -3.27684837999590       -0.28588863889188        3.64639102973147
C           -3.99306866674092       -0.10295008708104        2.47809499498842
C           -3.38191429143989       -0.19817056570346        1.23616996924783
H           -7.03829072477407        4.54604326333423        0.11640255417125
H           -4.59269514689648        4.73301650773210        0.06219985642393
H           -3.17709807896627        2.70676914872884        0.00481956574657
H           -8.13161916066656        2.33167930692115        0.11034858347026
H           -8.75969791554196       -0.20672535770330        0.08383112951396
H           -8.82493772559598       -2.67528014076040        0.04542917577414
H           -6.74798107472012       -3.97982480123210       -0.01866868780778
H           -4.55040629790584       -2.84610982174293       -0.04439329329818
H           -5.12466909514487        0.19022923472573       -2.49847621323219
H           -3.90420549513427       -0.05207861310111       -4.62499114335116
H           -1.47328039762909       -0.53115628008473       -4.59089349924887
H           -0.30149688248337       -0.77843069954339       -2.45681480921349
H           -0.30114058456992       -3.01014946026973       -0.22921324487294
H            2.11949232123581       -3.54877647813459       -0.26669697938965
H            6.08330843949412       -3.23195144013740       -0.23392137021220
H            8.55243932639446       -3.68631292597657       -0.24942051040690
H           10.10933540736619       -1.73442562680769       -0.08875330313848
H            8.23031695400511        4.22537806188161        0.35509104132393
H            5.83277438033721        4.94116367733860        0.38014678697377
H            4.06770272880566        3.16192623503577        0.22472621203656
H            0.62716256488289        1.15995624869825        0.06385646596549
H           -0.23890942239722       -0.88969430411919        2.30744265960649
H           -1.34745384987304       -0.71346261411186        4.48089728838722
H           -3.77052525652177       -0.20820211721175        4.60260756457076
H           -5.04912305342550        0.11881135458733        2.52221369257821
