57
 energy: -86.222820935367 gnorm: 0.000045619975 xtb: 6.7.1 (edcfbbe)
C           -1.46593519200445        3.72558187299441       -2.04793521034935
C           -1.31191778348973        2.57461955177524       -2.80659807422469
C           -1.40879803570393        1.31885931374851       -2.22112231652079
C           -1.66079838748173        1.24245136182919       -0.86856541411341
C           -1.81728260326004        2.40291674385347       -0.09638458249499
C           -1.72048646586046        3.65237507404899       -0.68738740518393
C           -2.07473867709999        2.00904339195440        1.28047344615806
C           -2.30805528131878        2.76391576051121        2.41864188629564
C           -2.53510491674770        2.10562010443526        3.61708671028303
C           -2.52833015836842        0.72005653136614        3.68096121055982
C           -2.29443963661377       -0.04304537376644        2.54432259772240
C           -2.06950287838375        0.60803361518261        1.35085293728959
C           -1.80384612267092        0.00824150530829       -0.00934134663056
C           -2.89144168940644       -0.93056132186390       -0.47561466719444
C           -4.23472313776075       -0.67039259177381       -0.63783062293702
C           -5.05857338590780       -1.69592572900033       -1.08380857100151
C           -4.54161767491812       -2.95302634500783       -1.36054599670139
C           -3.19111476035733       -3.21874247603041       -1.19770862371229
C           -2.36331011266630       -2.20077601027176       -0.75201630769187
C           -0.93350163303542       -2.17218086823048       -0.49004909380285
C            0.04132591342001       -3.15064973608511       -0.60179294963645
C            1.34941337393415       -2.82699750505969       -0.28514656963242
C            1.70111588763751       -1.54440746886069        0.13407864727904
C            3.10365454101636       -1.24114482712509        0.47255491775160
C            3.74506128259438       -2.00565258186320        1.41908651497955
C            5.06451683531835       -1.73362671383417        1.80233780145484
C            5.74482560363345       -0.69348514933683        1.23422923281259
C            5.13645486719865        0.10430547759906        0.24249772371233
C            5.83055860559499        1.16846208442879       -0.37237478137824
C            5.24225761391595        1.91923503858466       -1.35056288630930
C            3.93508737975376        1.62681366659853       -1.76847927858671
C            3.23423254981785        0.60530551937414       -1.18981973725781
C            3.80058210129540       -0.17220852911262       -0.15636417006420
C            0.71399589695933       -0.56395815534629        0.25984872269012
C           -0.58648113734483       -0.88496558032589       -0.05282619761259
H           -1.38713480019792        4.69196218054712       -2.52515357338293
H           -1.11439576163123        2.65504178759291       -3.86576597776703
H           -1.28910152533409        0.42251531969948       -2.81310626682387
H           -1.84044910103974        4.55165899887994       -0.10140925803432
H           -2.31496515712552        3.84304105069672        2.37443161536796
H           -2.72056612309574        2.67868432133027        4.51427527425118
H           -2.70827511835037        0.22804844673773        4.62588332597728
H           -2.29095686167696       -1.12253125484800        2.59436054697723
H           -4.63792531627847        0.30894686555454       -0.42281792504465
H           -6.11473901598817       -1.51150057772958       -1.21688027419605
H           -5.20161363018866       -3.73544424394968       -1.70704631903572
H           -2.79354941635458       -4.19939683698640       -1.41404820097100
H           -0.21043398434263       -4.14751984491375       -0.93244610265346
H            2.12402878418562       -3.57487068434034       -0.37888109483938
H            3.21211154237618       -2.81773407759271        1.89350161688522
H            5.53376663130809       -2.34952246072655        2.55607053844929
H            6.75966841480008       -0.46948113582826        1.53126606836097
H            6.84373612411142        1.37386682732986       -0.05581346943158
H            5.78124324682972        2.73203490449173       -1.81586603804451
H            3.48544251068929        2.21264507041032       -2.55741121623097
H            2.23540799310178        0.37713337726840       -1.53045276971503
H            0.97187030453013        0.42517015389272        0.61113231339353
