  57
        -86.18880677
 C         -1.2982695837        3.6785499336       -2.0400919807
 C         -1.1460418496        2.5170320294       -2.7822855378
 C         -1.3007410237        1.2704018548       -2.1907081585
 C         -1.6092988539        1.2153070175       -0.8494396878
 C         -1.7622768057        2.3859378093       -0.0930748609
 C         -1.6080796906        3.6260358116       -0.6903765602
 C         -2.0695853843        2.0107143836        1.2782322362
 C         -2.3218673068        2.7803397826        2.4017781054
 C         -2.5916776374        2.1374565251        3.5993766627
 C         -2.6094833788        0.7528675563        3.6765068465
 C         -2.3584276503       -0.0252354887        2.5541667320
 C         -2.0906835754        0.6108855358        1.3621631027
 C         -1.8015260279       -0.0063169932        0.0162658953
 C         -2.8904705273       -0.9350949284       -0.4626713169
 C         -4.2267392645       -0.6598035051       -0.6505231465
 C         -5.0552697571       -1.6803447761       -1.0983886889
 C         -4.5498397832       -2.9471144908       -1.3494399370
 C         -3.2056338753       -3.2272330123       -1.1626889201
 C         -2.3728060528       -2.2138996203       -0.7173876771
 C         -0.9459989401       -2.1963543450       -0.4413993111
 C          0.0260575423       -3.1767285213       -0.5563111497
 C          1.3372250290       -2.8521512460       -0.2546500795
 C          1.6933877533       -1.5693024049        0.1599457169
 C          3.1017658019       -1.2580402251        0.4555267047
 C          3.7934895419       -2.0465629728        1.3450617886
 C          5.1227573929       -1.7671780860        1.6840637575
 C          5.7620736373       -0.6945726609        1.1294571088
 C          5.1015287903        0.1284223563        0.1939962600
 C          5.7542160899        1.2265474329       -0.4053798479
 C          5.1165639407        2.0029532358       -1.3305980530
 C          3.8002903446        1.7016362692       -1.7105836801
 C          3.1384176110        0.6471867581       -1.1458825651
 C          3.7557521993       -0.1560301768       -0.1624690215
 C          0.7068763973       -0.5911875432        0.3041710678
 C         -0.5941295700       -0.9114414757       -0.0030180267
 H         -1.1718271108        4.6373338125       -2.5215030606
 H         -0.9035931115        2.5827350359       -3.8328424575
 H         -1.1810939840        0.3644588278       -2.7673850138
 H         -1.7233394687        4.5339031723       -0.1170890178
 H         -2.3095710292        3.8588528318        2.3469879019
 H         -2.7925141126        2.7219100333        4.4854295371
 H         -2.8228542320        0.2739093523        4.6207579921
 H         -2.3738895240       -1.1038790694        2.6132334721
 H         -4.6200876058        0.3269766405       -0.4537029652
 H         -6.1062583638       -1.4850883321       -1.2524254660
 H         -5.2138666921       -3.7253732566       -1.6963908446
 H         -2.8166133498       -4.2152013347       -1.3599461450
 H         -0.2289082008       -4.1726188574       -0.8871355830
 H          2.1118070762       -3.5977660453       -0.3629417430
 H          3.2926461098       -2.8834145339        1.8106860193
 H          5.6323272580       -2.4023583523        2.3938449902
 H          6.7840246771       -0.4635796649        1.3940191077
 H          6.7752860016        1.4371209693       -0.1199242760
 H          5.6230673791        2.8423240760       -1.7841802036
 H          3.3115444626        2.3075491141       -2.4596928891
 H          2.1327202838        0.4146285125       -1.4616668742
 H          0.9656802324        0.3967456365        0.6570558976
