  82
  -122.826931950000       0.646147038708610      !
 C         -5.3643007094        4.4199171912        0.2126736861
 C         -5.8479988668        3.1456821701        0.4600308581
 C         -4.9763080641        2.0849056773        0.6202099330
 C         -3.6008651095        2.2867190799        0.5256078111
 C         -2.6420831050        1.2030494303        0.6747675466
 N         -1.3745832160        1.4572251092        1.0979269405
 C         -0.7458035531        0.3088196925        1.1532837428
 C          0.6582159777        0.2039715072        1.5000196989
 C          1.4967776420       -0.7957815570        1.0162295120
 C          2.8411436108       -0.8097687282        1.3342638075
 C          3.3827895522        0.1861636383        2.1406723760
 O          4.6831349070        0.2473790463        2.5396473652
 C          5.7136806296       -0.2124061077        1.6817884712
 C          6.5732064829        0.9792954108        1.2509479312
 C          5.8107259704        1.9860578038        0.3850932263
 C          5.7839852229        1.6332828111       -1.1092729183
 C          4.9167601059        0.4573074591       -1.4619483745
 C          5.4567905260       -0.7876415302       -1.7480248032
 C          4.6677767627       -1.8741221317       -2.1182580857
 C          3.2995708775       -1.7479287220       -2.2467918553
 C          2.7237912761       -0.5129508974       -1.9792124352
 C          3.5314406955        0.5723222200       -1.5641242917
 N          2.7279677961        1.6659792963       -1.3596317399
 C          1.4281174371        1.3375070155       -1.6491483373
 C          0.2883273420        2.1260093123       -1.6285028878
 C         -0.9028864133        1.5453600108       -2.0166761968
 C         -0.9651889514        0.2078185616       -2.4027121147
 C          0.1649853873       -0.5846435181       -2.4164917828
 C          1.3772420097       -0.0186757786       -2.0438603452
 C          2.5429343381        1.1888925765        2.6320023187
 C          1.2057322704        1.1998699659        2.3124105727
 N         -1.5736638184       -0.7204051176        0.7851965409
 C         -1.2911928279       -2.0970026766        0.7807139995
 C         -1.5385901169       -2.8585079262       -0.3557230276
 C         -1.2753934961       -4.2158658311       -0.3417255196
 C         -0.7682455418       -4.8178849928        0.7975580759
 C         -0.5257116005       -4.0584472601        1.9306284229
 C         -0.7899297938       -2.7017526708        1.9292566073
 C         -2.7895222841       -0.1572337411        0.4611290714
 C         -3.9234868222       -0.9388680418       -0.0125533412
 C         -4.6014874956       -0.5454097075       -1.1662473814
 C         -5.6703872464       -1.2838184369       -1.6350647245
 C         -6.0782688053       -2.4248160794       -0.9624300070
 C         -5.4158131700       -2.8181782655        0.1880122019
 C         -4.3457287316       -2.0827026293        0.6626360962
 C         -3.1216774795        3.5767394109        0.2985372780
 C         -3.9970145621        4.6329031616        0.1405590923
 H         -6.0503101930        5.2446085831        0.0843008108
 H         -6.9130883218        2.9777790485        0.5334684359
 H         -5.3625354030        1.0988681056        0.8315021854
 H          1.1122861631       -1.5664704564        0.3671403438
 H          3.4570140036       -1.6067885945        0.9459765368
 H          5.3099886846       -0.7192765243        0.8043105391
 H          6.3243188360       -0.9207929817        2.2536801368
 H          7.4479728530        0.6073584715        0.7149827481
 H          6.9179218000        1.4802418852        2.1576779013
 H          6.2927779755        2.9614430984        0.4867163891
 H          4.7915176555        2.0812349275        0.7649674074
 H          6.8061832156        1.4346397923       -1.4392372621
 H          5.4254542986        2.5078027594       -1.6611378856
 H          6.5284965235       -0.9170105418       -1.6868055408
 H          5.1431320020       -2.8224526597       -2.3218630086
 H          2.6896993936       -2.5840608526       -2.5540208388
 H          3.0364511664        2.5672479020       -1.0402116658
 H          0.3306693452        3.1600792385       -1.3224317614
 H         -1.8049937434        2.1389230761       -2.0196131346
 H         -1.9165226807       -0.2079507714       -2.7035601349
 H          0.1168176427       -1.6199116857       -2.7218942319
 H          2.9713385088        1.9510050214        3.2649239324
 H          0.5568447928        1.9813894089        2.6748035924
 H         -1.9322362315       -2.3828940806       -1.2401301001
 H         -1.4679868170       -4.8052967090       -1.2257637196
 H         -0.5645660782       -5.8780422841        0.8040263275
 H         -0.1353495736       -4.5250060078        2.8226160615
 H         -0.6067274034       -2.1025465812        2.8089157769
 H         -4.2810668697        0.3450325765       -1.6870610729
 H         -6.1860838994       -0.9709574047       -2.5312562844
 H         -6.9124516869       -3.0026508990       -1.3318720655
 H         -5.7354273492       -3.7014129647        0.7216682461
 H         -3.8436274276       -2.3873274426        1.5697741622
 H         -2.0538890345        3.7239892548        0.2511068174
 H         -3.6148756059        5.6272275993       -0.0424589652
  82
  -122.826322380000       0.338994289616580      !
 C         -5.5803549036        4.3139178439        0.3182218932
 C         -5.9883491954        3.0089644738        0.5409165499
 C         -5.0559954207        1.9971159101        0.6726478960
 C         -3.6950836861        2.2799436146        0.5756357715
 C         -2.6760236035        1.2501082802        0.7094491599
 N         -1.4344437272        1.5664104509        1.1624874818
 C         -0.7421476483        0.4536837397        1.2124793133
 C          0.6498167725        0.4254873725        1.6160880394
 C          1.5574732514       -0.5588347386        1.2385165965
 C          2.8748013213       -0.5130913671        1.6604212764
 C          3.3246198434        0.5431483294        2.4444892725
 O          4.5905654184        0.7217590874        2.9127468901
 C          5.6466692379       -0.1255515705        2.5158102302
 C          5.9872579089       -0.0849507275        1.0175400057
 C          5.7704211539        1.2913691527        0.3916900476
 C          5.8637246875        1.2276043830       -1.1389117992
 C          4.9167085862        0.2079741802       -1.7102751940
 C          5.3792788183       -1.0059087813       -2.1959175607
 C          4.5248543994       -1.9861892717       -2.6936563506
 C          3.1612579650       -1.7824458624       -2.7353709142
 C          2.6617912159       -0.5732735302       -2.2697610431
 C          3.5375895677        0.4078264559       -1.7463821495
 N          2.7965710634        1.4990537256       -1.3650461090
 C          1.4730476980        1.2732533306       -1.6461728409
 C          0.3765860950        2.1072928383       -1.4905057631
 C         -0.8516214447        1.6415586843       -1.9172474406
 C         -0.9938849889        0.3698701493       -2.4692877560
 C          0.0928204870       -0.4680193002       -2.6188558425
 C          1.3407128407       -0.0153855444       -2.2115461940
 C          2.4207606589        1.5480099308        2.8049285917
 C          1.1095470216        1.4871146754        2.4024747282
 N         -1.5033388418       -0.6124104762        0.8076444954
 C         -1.1520954310       -1.9737227546        0.7932545937
 C         -1.2929520901       -2.7193052208       -0.3710398014
 C         -0.9670797607       -4.0631107951       -0.3670321424
 C         -0.5059444882       -4.6670054370        0.7906095484
 C         -0.3721862969       -3.9236957448        1.9521633221
 C         -0.6978585353       -2.5804611581        1.9601780306
 C         -2.7419119544       -0.1120260696        0.4658235090
 C         -3.8180999937       -0.9397493723       -0.0596135743
 C         -4.5066674112       -0.5309360838       -1.2021173694
 C         -5.5204530891       -1.3096236385       -1.7245614200
 C         -5.8629596048       -2.5077412595       -1.1179276981
 C         -5.1925339765       -2.9159769885        0.0225312336
 C         -4.1780824906       -2.1397011701        0.5514158660
 C         -3.2924205361        3.5995478177        0.3719828161
 C         -4.2282789233        4.6065177995        0.2407774266
 H         -6.3134557961        5.1005402772        0.2135222272
 H         -7.0413941672        2.7785870792        0.6176334909
 H         -5.3828350156        0.9860595713        0.8652846660
 H          1.2543343113       -1.3665436922        0.5905680472
 H          3.5363773413       -1.3110686913        1.3649866572
 H          5.4446307391       -1.1609381820        2.8226520797
 H          6.4934099616        0.2465344488        3.0999532459
 H          5.3736050666       -0.8049722960        0.4756088194
 H          7.0285694528       -0.3901358027        0.9001795594
 H          6.5075715707        1.9985927547        0.7771965604
 H          4.7811129426        1.6561441316        0.6721104975
 H          6.8841884467        0.9660587960       -1.4259208809
 H          5.6430819087        2.2161328123       -1.5510388475
 H          6.4433432729       -1.1965329065       -2.1870290844
 H          4.9435040645       -2.9139319760       -3.0549145581
 H          2.4958156686       -2.5373826040       -3.1260016946
 H          3.1606176429        2.3389039239       -0.9508733491
 H          0.4794274982        3.0889831505       -1.0543466405
 H         -1.7204513681        2.2754196232       -1.8227154230
 H         -1.9718061091        0.0419913123       -2.7922448485
 H         -0.0139459517       -1.4482188581       -3.0603579751
 H          2.7830708941        2.3645518231        3.4100811497
 H          0.4090320525        2.2588411268        2.6789440938
 H         -1.6535578291       -2.2400005534       -1.2672163622
 H         -1.0752280869       -4.6408289938       -1.2727538499
 H         -0.2540140753       -5.7167928353        0.7895569485
 H         -0.0187133924       -4.3926381242        2.8582576279
 H         -0.5996275189       -1.9928682042        2.8611979974
 H         -4.2388121043        0.4042458974       -1.6714674549
 H         -6.0442698932       -0.9834668381       -2.6112360756
 H         -6.6527718270       -3.1179748059       -1.5303077488
 H         -5.4619470322       -3.8437528958        0.5060086376
 H         -3.6723270316       -2.4584065114        1.4515110065
 H         -2.2354639144        3.8114659337        0.3238462257
 H         -3.9050999098        5.6249768776        0.0789502890
  82
  -122.823366970000       1.485867167480969E-002 !
 C         -4.9685585063        3.7349628458       -2.7621707944
 C         -3.5930167343        3.8852134113       -2.6922610515
 C         -2.8079365861        2.8613272944       -2.1999993336
 C         -3.3875840915        1.6697345491       -1.7652947087
 C         -2.5262813710        0.6143739249       -1.2549659546
 N         -1.2190841854        0.5449887873       -1.6299002582
 C         -0.7029347654       -0.5071708039       -1.0436727389
 C          0.7110899826       -0.8234147705       -1.0929404371
 C          1.3767191995       -1.4114350874       -0.0226211312
 C          2.7492057798       -1.5630510141       -0.0425111594
 C          3.4909021003       -1.1046385767       -1.1264896173
 O          4.8484676649       -1.1370542194       -1.1945084151
 C          5.5644224662       -1.2633647149        0.0169980929
 C          6.9290281531       -0.5971535644       -0.1347785238
 C          6.8347574525        0.8697809337       -0.5570482871
 C          6.0354745562        1.7630095335        0.4112126293
 C          4.6080202416        1.9838499056       -0.0239118780
 C          4.3490188481        2.6116902529       -1.2350138491
 C          3.0594741505        2.8579394606       -1.6928571549
 C          1.9594169323        2.5021915905       -0.9404673528
 C          2.1790611252        1.8921018943        0.2852176654
 C          3.4953274117        1.6260489840        0.7321896324
 N          3.4192449462        0.9915479674        1.9541240306
 C          2.1026380230        0.8492188564        2.3136214632
 C          1.5494910592        0.2609826995        3.4404093168
 C          0.1713871849        0.2510916993        3.5489447333
 C         -0.6377505296        0.8238454846        2.5697241278
 C         -0.0914696534        1.4059260241        1.4431010902
 C          1.2894591075        1.4067346099        1.3014850473
 C          2.8222331486       -0.5575583624       -2.2226282210
 C          1.4550712283       -0.4146333863       -2.2019779141
 N         -1.6447673504       -1.1580217266       -0.2881302253
 C         -1.4965209057       -2.3663864479        0.4128885472
 C         -1.8663569119       -2.4554771570        1.7499428769
 C         -1.7368575841       -3.6596710089        2.4170465237
 C         -1.2405957916       -4.7732418463        1.7604628640
 C         -0.8697423567       -4.6820654112        0.4286058281
 C         -0.9997228570       -3.4849284876       -0.2493963397
 C         -2.8142885081       -0.4369586491       -0.4006711142
 C         -4.0336449336       -0.7888856766        0.3140460499
 C         -4.6922895523        0.1812335572        1.0696441046
 C         -5.8423751234       -0.1370434162        1.7648844001
 C         -6.3497591050       -1.4260265926        1.7199713086
 C         -5.7039122437       -2.3937940252        0.9693320119
 C         -4.5532101763       -2.0810039572        0.2696061664
 C         -4.7700654657        1.5188429376       -1.8579774428
 C         -5.5511900179        2.5476198461       -2.3491736972
 H         -5.5843498851        4.5363873235       -3.1438909073
 H         -3.1324272881        4.8056275315       -3.0227929800
 H         -1.7347787469        2.9623632177       -2.1454237805
 H          0.8353140024       -1.7217979840        0.8578909434
 H          3.2297113386       -2.0284159555        0.8043821340
 H          5.6942616889       -2.3261742357        0.2701455797
 H          5.0087070455       -0.7799610873        0.8268397941
 H          7.5028505172       -1.1375921645       -0.8893181683
 H          7.4551160824       -0.6831721427        0.8190301265
 H          6.3747705895        0.9120850266       -1.5441738914
 H          7.8533001814        1.2533768064       -0.6448836193
 H          6.5200997984        2.7426658530        0.4543337710
 H          6.0765935431        1.3427395645        1.4180901812
 H          5.1862359834        2.9237716986       -1.8433791619
 H          2.9251758027        3.3390685364       -2.6502066668
 H          0.9546332584        2.6776904882       -1.2894897774
 H          4.1999040970        0.7454652173        2.5378490534
 H          2.1725905767       -0.1729470302        4.2094093674
 H         -0.2874242765       -0.2030522934        4.4155082172
 H         -1.7106037066        0.8183377030        2.7020238757
 H         -0.7179314766        1.8520278821        0.6865654908
 H          3.4058641863       -0.2222967803       -3.0650587450
 H          0.9377430702        0.0429973776       -3.0299502065
 H         -2.2445736541       -1.5834044948        2.2594682179
 H         -2.0246045051       -3.7264161813        3.4555602747
 H         -1.1429506056       -5.7117070383        2.2851737887
 H         -0.4844557793       -5.5487835051       -0.0873288061
 H         -0.7166776932       -3.4041485792       -1.2885704288
 H         -4.2921129574        1.1843065996        1.1026971449
 H         -6.3439109042        0.6216410431        2.3478504222
 H         -7.2476522857       -1.6738453713        2.2664442554
 H         -6.0989968917       -3.3983666546        0.9259638298
 H         -4.0615676996       -2.8377484426       -0.3251224044
 H         -5.2317842249        0.5898203660       -1.5573135743
 H         -6.6224553608        2.4203496531       -2.4152996133
