  81
       -122.82295063
 C         -1.2518373864       -1.9721237643        1.8597343146
 C         -0.5799789529       -0.9889715129        0.9473676971
 C          0.8069564462       -0.9444074706        0.9002928167
 C          1.4855658678       -0.0425927032        0.0949571989
 C          2.9665927947       -0.0431235698        0.0713584436
 C          3.6775849768        0.7662292456        0.9650948830
 C          3.0100227957        1.5891749332        1.9098685394
 C          3.7069400525        2.3637909647        2.7845551209
 C          5.1164757815        2.3537445187        2.7735292324
 C          5.7936773989        1.5805761655        1.8814361625
 C          5.1064837541        0.7719056510        0.9380745980
 C          5.7858101554       -0.0286480333        0.0085812999
 C          7.2625326771       -0.0115502425       -0.0301722642
 C          7.9940980918       -1.1196661385        0.3934370680
 C          9.3733914334       -1.1054793944        0.3636421105
 C         10.0439399483        0.0277106618       -0.1002601424
 C         11.4555583239        0.0481251758       -0.1348363347
 N         12.6025097163        0.0636778765       -0.1614706983
 C          9.3193607640        1.1409795739       -0.5299410996
 C          7.9406222977        1.1159950702       -0.4903270967
 C          5.0744528450       -0.8405622403       -0.8862710030
 C          5.7270903313       -1.6426928025       -1.8593049940
 C          5.0186482463       -2.4210232806       -2.7221436207
 C          3.6101014971       -2.4433896915       -2.6721235715
 C          2.9451306095       -1.6773531544       -1.7656231575
 C          3.6457315596       -0.8497116794       -0.8493025689
 C          0.7669805781        0.8658939802       -0.6861617634
 C          1.4877070440        1.8521893433       -1.5536375374
 C         -0.6150141181        0.8259074429       -0.6355588879
 C         -1.3005097671       -0.0924695038        0.1556218279
 C         -2.7746609356       -0.0742084099        0.1253561070
 C         -3.4639176552        1.1038989983        0.3994688086
 C         -4.8433227613        1.1437078981        0.3584672682
 C         -5.5645505779        0.0033853191        0.0157195264
 N         -6.9638608781        0.0405906736       -0.0382633459
 C         -7.7220422488        0.9794144391       -0.7091337952
 C         -7.3146034574        2.0435639107       -1.5010906051
 C         -8.2929086901        2.8238775723       -2.0867809841
 C         -9.6470922545        2.5538575186       -1.9016371106
 C        -10.0585274881        1.4819218272       -1.1353212560
 C         -9.0937001029        0.6828353745       -0.5361860919
 C         -9.1563489902       -0.4932933837        0.2852621685
 C        -10.2049380480       -1.2429609364        0.8017788300
 C         -9.9105491766       -2.3345185948        1.5938788814
 C         -8.5908374571       -2.6724172819        1.8857078036
 C         -7.5308578504       -1.9418418506        1.3839921636
 C         -7.8195719947       -0.8582222302        0.5666895325
 C         -4.8819180431       -1.1741528649       -0.2768880209
 C         -3.5034486479       -1.2109305377       -0.2131048794
 H         -2.2467772501       -1.6339473460        2.1379867016
 H         -1.3451671559       -2.9432075600        1.3720973978
 H         -0.6600703799       -2.1114810314        2.7620938251
 H          1.3792802541       -1.6299117794        1.5102542886
 H          1.9297602594        1.5818902120        1.9201545951
 H          3.1880126573        2.9860293272        3.4984940104
 H          5.6549079167        2.9632813903        3.4841170782
 H          6.8738895300        1.5685929137        1.8850721324
 H          7.4697956728       -1.9927929001        0.7539012960
 H          9.9404046042       -1.9626558945        0.6961677428
 H          9.8444320488        2.0137387350       -0.8895796670
 H          7.3742798682        1.9741943267       -0.8219667112
 H          6.8059888462       -1.6218021558       -1.9091111429
 H          5.5309619920       -3.0256594992       -3.4558498022
 H          3.0661278583       -3.0688940766       -3.3642180270
 H          1.8655246956       -1.6819235959       -1.7269943389
 H          0.7831980405        2.4861434855       -2.0860123048
 H          2.1110999415        1.3328951235       -2.2814806025
 H          2.1414523421        2.4824923198       -0.9509960902
 H         -1.1873708308        1.5152257661       -1.2410052146
 H         -2.9093941812        1.9908377804        0.6700410285
 H         -5.3707466068        2.0534213029        0.6038734002
 H         -6.2678725368        2.2502634031       -1.6662544379
 H         -8.0008972223        3.6598177665       -2.7052281544
 H        -10.3810686733        3.1893069847       -2.3742860232
 H        -11.1074496786        1.2622753879       -1.0050803450
 H        -11.2276802652       -0.9710274666        0.5885255975
 H        -10.7109932868       -2.9326743362        2.0030104876
 H         -8.3915903172       -3.5226375284        2.5212673375
 H         -6.5123917837       -2.2015163381        1.6310588668
 H         -5.4379207479       -2.0524024403       -0.5692886337
 H         -2.9816397172       -2.1243452866       -0.4562001203
