81
 energy: -122.874657146867 gnorm: 0.000094541253 xtb: 6.7.1 (edcfbbe)
C           -1.25078279430981       -1.97608711029084        1.85169161671811
C           -0.57879487894132       -0.99123478003590        0.94077166831494
C            0.80826600749280       -0.94288845245066        0.89410200093954
C            1.48662947513709       -0.03945497755847        0.08887439454235
C            2.96883556954932       -0.03791687594006        0.06896853560487
C            3.67786037573980        0.77221372950103        0.96459212360852
C            3.00663882717631        1.59716686276154        1.90565250281954
C            3.69894821426570        2.37230131444170        2.78393700032404
C            5.10875778251210        2.35769788347536        2.78273983144828
C            5.78962982064199        1.58166274942050        1.89533483820103
C            5.10752164531802        0.77626557579980        0.94477366619676
C            5.79170760011236       -0.02335686347321        0.01664727074775
C            7.26860477394470       -0.00811037963579       -0.01934931021713
C            7.99717599500614       -1.13541661367367        0.35913703505880
C            9.37640371413064       -1.12890763985009        0.32165070851442
C           10.05195230846694        0.01811958992659       -0.10190273007033
C           11.46212235653285        0.03093372092358       -0.14831162628653
N           12.60985338555502        0.04223740041554       -0.18738490115114
C            9.33102623364733        1.15266335447828       -0.48212795758310
C            7.95218964969188        1.13342245877490       -0.43729160776451
C            5.08191000458215       -0.83500333145859       -0.88158615340228
C            5.73633211909719       -1.63392455464903       -1.85675487502839
C            5.03115931888142       -2.41772962549079       -2.71793621616379
C            3.62258817391259       -2.44714015671622       -2.66651909763513
C            2.95549901251507       -1.67936729733110       -1.76266149762917
C            3.65257130731340       -0.84669859238314       -0.84747411250642
C            0.76606240368123        0.86679194619753       -0.69379397096088
C            1.48130841715834        1.85914486842595       -1.55974747432266
C           -0.61654956461551        0.82196654924206       -0.64422495443448
C           -1.30091836310442       -0.09700530285142        0.14722816720466
C           -2.77640501560551       -0.08048727498261        0.11680949032519
C           -3.46691163300687        1.09280050296163        0.40961869823075
C           -4.84682917643904        1.13248699633880        0.36782637354513
C           -5.56637116591959       -0.00308691030398        0.00741389138977
N           -6.96926685402750        0.03465788213002       -0.04521118506718
C           -7.72741617870543        0.96755280156215       -0.72317812586424
C           -7.31953219579425        2.02236216037237       -1.52819552144826
C           -8.29723487685436        2.80163156957264       -2.11649683476294
C           -9.65220620717946        2.54021297725915       -1.92053379675164
C          -10.06442373836885        1.47831448590108       -1.14021777076461
C           -9.10003810613671        0.67978274381936       -0.53823407383576
C           -9.16249736873194       -0.48564111131227        0.29871508050878
C          -10.21038783509305       -1.22598265935467        0.83151523607351
C           -9.91478249492358       -2.30911507928881        1.63520227815648
C           -8.59379722052219       -2.64955095600029        1.92105257384208
C           -7.53462096231712       -1.92907634336155        1.40300426592471
C           -7.82471803378737       -0.85223914033944        0.57637235497918
C           -4.88371383076061       -1.17540342758327       -0.30376789626631
C           -3.50449913475031       -1.21215564219597       -0.24029755239792
H           -2.23292418694715       -1.62249822709969        2.15653105443501
H           -1.37474385990212       -2.93634162853194        1.35014484032251
H           -0.64317952883991       -2.14288930325727        2.73902636663735
H            1.38141622235753       -1.62694884453197        1.50527650057969
H            1.92643235253927        1.59260217377569        1.90982740960074
H            3.17634792256021        2.99686851362463        3.49386553409244
H            5.64463929105947        2.96548206054574        3.49752321331371
H            6.86946730917368        1.56636124368856        1.90942010676660
H            7.47126994815396       -2.01937862689120        0.68895375385439
H            9.94000491334441       -2.00223327066677        0.61640083878617
H            9.85996289896540        2.03610048411883       -0.80916506477537
H            7.39127474271144        2.00705024706969       -0.73538861311725
H            6.81463811191883       -1.60791020820821       -1.91059570205873
H            5.54648540872604       -3.02046687677759       -3.45185719031111
H            3.08040485788412       -3.07716896427377       -3.35664876009474
H            1.87595329507662       -1.68651839481718       -1.72649117466085
H            0.77256867959807        2.47580805293424       -2.10700543957418
H            2.12513262751206        1.34667480256048       -2.27422013415923
H            2.11378127893651        2.50680748644343       -0.95275164627126
H           -1.18997085817327        1.50995484576113       -1.25034894896501
H           -2.91410192812282        1.97670129365576        0.69351705751643
H           -5.37520270638897        2.03892563199179        0.62428226560650
H           -6.27258739407706        2.22357740751528       -1.69867852349585
H           -8.00488837585944        3.63015524757127       -2.74540101395057
H          -10.38651202258106        3.17461209353593       -2.39531054930595
H          -11.11434919679183        1.26676721999768       -1.00120778075191
H          -11.23431265750545       -0.95381561790530        0.62207564897238
H          -10.71532229627609       -2.89908989186034        2.05725672628362
H           -8.39386196800819       -3.49384170855601        2.56496603125584
H           -6.51515400282199       -2.19201429050467        1.64224195679119
H           -5.43945556765470       -2.05046436956138       -0.60699636636282
H           -2.98301483774735       -2.12201185524906       -0.49671539341091
