38
 energy: -61.982745249236 gnorm: 0.000092234234 xtb: 6.7.1 (edcfbbe)
C           -2.33289427674980       -3.81181181179190        0.21653413773524
C           -0.95395899737045       -3.62971022943128        0.21248202469132
C           -0.41342291423749       -2.36024046474284        0.15468110162975
C           -1.24255507273652       -1.24007971370157        0.07409297218339
C           -2.64101398116162       -1.43514433187532        0.08836659857384
C           -3.17358350548671       -2.71685419469753        0.16151565979636
O           -3.51623402779163       -0.39589961592838        0.04400852428914
C           -3.01575290407856        0.86018540562853       -0.10487277300028
C           -3.92092790351767        1.90466393988776       -0.22557088207272
C           -3.46736329958356        3.19466881896862       -0.42646086256327
C           -2.09804603043416        3.44002361755001       -0.52951898201029
C           -1.18975253131820        2.41396010914700       -0.39507769622314
C           -1.62232916807463        1.10430406430873       -0.15360134063466
N           -0.74222906386245        0.05120609271743        0.01280808299198
C            0.62691851379648        0.29548708841098        0.22440840490797
C            1.02693354328050        1.12469939196362        1.26178333838481
C            2.38095078530485        1.31949161129111        1.48586618988889
C            3.33211060749207        0.69074335041697        0.64417567754320
C            4.71209932045834        0.84967915294538        0.76783854518483
C            5.58906952302562        0.20520358606059       -0.10121842834677
C            5.09812884689198       -0.59528676633556       -1.11646756713065
C            3.72976872872295       -0.76209491073137       -1.28149968510325
C            2.82421048352842       -0.13166309033829       -0.41455321631172
N            1.50828517383685       -0.30143660945610       -0.60406476256310
H           -2.74953106804011       -4.80478881543425        0.27296793959499
H           -0.29561590755205       -4.48233708474321        0.26508056598361
H            0.65476404859207       -2.22028842400509        0.14940349799029
H           -4.24626649864804       -2.82404765752609        0.17761350394866
H           -4.97350960160960        1.67801902399184       -0.16750432297977
H           -4.17243167037430        4.00487622066285       -0.51752271549820
H           -1.74294658995899        4.44085382069972       -0.71793869951182
H           -0.13183805725618        2.60427929687192       -0.48380851398677
H            0.28161353518639        1.56816756356525        1.90586583103940
H            2.71672159896726        1.92748455911667        2.31167770288796
H            5.09658112285780        1.49284087818687        1.54745108323748
H            6.65472643042294        0.33721091845171        0.02095693371215
H            5.77926945506323       -1.09583813784376       -1.79001490818459
H            3.33612648386416       -1.39958426167881       -2.05856562239607
