38
 energy: -62.068838419885 gnorm: 0.000033017277 xtb: 6.7.1 (edcfbbe)
C           -3.50800508178098       -3.13929810230340       -0.40023103402373
C           -2.22440216153526       -3.33188627189477       -0.87890972854298
C           -1.29091323455005       -2.31188691014891       -0.80365375483973
C           -1.62197908676137       -1.09151815171287       -0.22512233609939
C           -2.93842131416357       -0.88709887609514        0.19933876429789
C           -3.87137155327666       -1.90841722085259        0.12096135490160
O           -3.34782535732737        0.32573763430750        0.69286174869614
C           -2.55991845739395        1.40469032784838        0.35438732228509
C           -3.13474315818688        2.65998205147697        0.45780535733509
C           -2.39810149850473        3.78947924188179        0.14077738266501
C           -1.09541652204895        3.65247501515727       -0.29974794278197
C           -0.51935423273443        2.39717847369421       -0.41599699038555
C           -1.23461534151161        1.25756279904756       -0.07474863570596
N           -0.69133983375668       -0.04393630950559       -0.10976767446645
C            0.65524593903782       -0.32204725103350        0.07779632258360
C            1.01797435219262       -1.46787913823543        0.84275180325470
C            2.33694068715017       -1.73373593783014        1.04687453113970
C            3.32135895734796       -0.87641880206052        0.49970429748431
C            4.70341202654220       -1.08107576123891        0.65272718003921
C            5.59782152892477       -0.19605502787710        0.11144981737817
C            5.14292734838334        0.92432859192241       -0.59892915787962
C            3.80306257456343        1.15192611237045       -0.76420479002984
C            2.86014637103801        0.25610188957381       -0.22169585713505
N            1.54778806470129        0.50024430656459       -0.41802745327829
H           -4.23386651901276       -3.93584840493941       -0.44625844510651
H           -1.94175360753977       -4.27702604764302       -1.31607291780568
H           -0.29241982629382       -2.46018517609086       -1.18659408025646
H           -4.87151169748981       -1.71973875354991        0.47788019775500
H           -4.15556415241354        2.72873258276215        0.79993941177865
H           -2.84855062714603        4.76541731838636        0.23383616807084
H           -0.51429521390648        4.52432293880723       -0.55838497869410
H            0.49773067614440        2.28331500326007       -0.74916674778465
H            0.24840474567557       -2.08663932769561        1.27793379671750
H            2.64517430976493       -2.58459215369822        1.63880879761988
H            5.04397333029693       -1.94736157834431        1.20261153143743
H            6.65960221492408       -0.35500697028110        0.22939781109730
H            5.86310454438754        1.61133237809445       -1.01901483021988
H            3.43984793912139        2.00809225332337       -1.31159553101525
