38
 energy: -62.068849241448 gnorm: 0.000033787789 xtb: 6.7.1 (edcfbbe)
C           -3.57944441697279       -3.21972493801065       -0.14129281702794
C           -2.28789610962030       -3.40903773185836       -0.59893422094949
C           -1.38617136385250       -2.35807158679886       -0.59859316913121
C           -1.75651559551996       -1.10777519896583       -0.11556405815698
C           -3.08080179923583       -0.91214233410373        0.28838767511214
C           -3.98229302936189       -1.96406531536537        0.28317290983046
O           -3.53022204968755        0.31998617561950        0.69076616533044
C           -2.76461179010357        1.39622987719542        0.29776646731035
C           -3.36845878247972        2.64152035080859        0.33370444684849
C           -2.65559962843834        3.77070720185103       -0.03485964104638
C           -1.34643075722485        3.64200182792114       -0.45804901210820
C           -0.74162804799079        2.39591305064943       -0.50787459518470
C           -1.43319645554757        1.25813560239332       -0.11538103960303
N           -0.85710293844298       -0.02849057733473       -0.07740374974225
C            0.49972304085082       -0.25822686917421        0.11052404440096
C            0.90061618082339       -1.32130998559999        0.96942698405306
C            2.22849623229859       -1.53478271979037        1.17805755500584
C            3.18340886094711       -0.70726568032712        0.54028719200908
C            4.57214794101227       -0.86235830859524        0.69179406016289
C            5.43666395253436       -0.01336115888861        0.05311540542160
C            4.94464977812443        1.01993035651394       -0.75750986762359
C            3.59743715210128        1.19950026226362       -0.92198847872595
C            2.68473761543928        0.33943811430695       -0.27921340994636
N            1.36397151124940        0.53435392664211       -0.47489953756660
H           -4.28133177088047       -4.03868199717581       -0.12966301412356
H           -1.97406635427868       -4.37545799679885       -0.96196640506406
H           -0.38194642545267       -2.50460333011949       -0.96693774247674
H           -4.98996442335785       -1.77907421939857        0.62035477727691
H           -4.39317205814366        2.70358849639755        0.66532957062704
H           -3.12909277717905        4.73925730724969        0.00588584586497
H           -0.78254124722924        4.51295790810590       -0.75503327205877
H            0.28033932506005        2.28937148798131       -0.82882584038629
H            0.15210753175175       -1.91838077561354        1.46722373056988
H            2.56584585618780       -2.32036205421269        1.84014211801675
H            4.94179195521288       -1.66222683759529        1.31813206709138
H            6.50351678197155       -0.13473269318043        0.16955850053719
H            5.64178260795469        1.67843073097166       -1.25494355705890
H            3.20525349747844        1.98880863202877       -1.54469508749243
