  57
  -91.7087309720000       0.190390797196086      !
 C         -6.8884611347        1.5424767692       -1.8322819497
 C         -6.4467295932        0.2330260068       -1.7317290246
 C         -5.1736959993       -0.0390776125       -1.2688092615
 C         -4.3255556847        1.0039490140       -0.9013103085
 C         -2.9620403903        0.7387143565       -0.4314193464
 N         -2.0211829829        1.5512405724       -0.8513332645
 C         -0.7385526580        1.2550309694       -0.5816360940
 C          0.2978860701        2.1164192754       -0.9940837670
 C          1.5992705456        1.7432520646       -0.8204120727
 C          1.9255849790        0.4994960892       -0.2328656629
 N          3.2830391897        0.1373177527       -0.1143515697
 C          4.1479906801        0.9038527507        0.6691073179
 C          3.6964601291        1.9610338174        1.4492052594
 C          4.5799235744        2.7027268928        2.2187517589
 C          5.9243105051        2.3916284488        2.2323199620
 C          6.3855936133        1.3176189621        1.4851621592
 C          5.5091959220        0.5752429925        0.7161098603
 O          6.0323912967       -0.4893898667        0.0260946278
 C          5.1641748680       -1.2515521281       -0.7159301839
 C          5.7043579449       -2.3260183126       -1.3977399123
 C          4.8999172951       -3.1261541914       -2.1953880610
 C          3.5566800965       -2.8336484076       -2.3143074261
 C          3.0090922408       -1.7592133443       -1.6298202118
 C          3.7958379847       -0.9624688813       -0.8079296677
 C          0.9349680087       -0.3445706688        0.2087702439
 C         -0.4113644712        0.0289770195        0.0616553539
 N         -1.3871256410       -0.7341597223        0.5884805478
 C         -2.6359914924       -0.3750855374        0.4138337525
 C         -3.6498303938       -1.1364984619        1.1510451773
 C         -4.7494913871       -0.5044049912        1.7281373928
 C         -5.6775050901       -1.2409947944        2.4391243491
 C         -5.5216757206       -2.6103252738        2.5823101789
 C         -4.4211801538       -3.2415847504        2.0258752097
 C         -3.4856871992       -2.5094088728        1.3203903013
 C         -4.7664738357        2.3190055971       -1.0298105882
 C         -6.0437157014        2.5843117390       -1.4853763523
 H         -7.8867937403        1.7500785119       -2.1881980036
 H         -7.0969466286       -0.5807071021       -2.0174879988
 H         -4.8285494423       -1.0609240970       -1.2079966992
 H          0.0337169660        3.0497841230       -1.4659323165
 H          2.4042731061        2.3835996990       -1.1503659874
 H          2.6449476224        2.2023114731        1.4611800685
 H          4.2028946844        3.5225911204        2.8105572052
 H          6.6161033969        2.9671887810        2.8267864514
 H          7.4263957168        1.0358938918        1.4888182448
 H          6.7609774130       -2.5153770111       -1.2956444180
 H          5.3303457221       -3.9623141320       -2.7233582827
 H          2.9197904931       -3.4363346911       -2.9434355210
 H          1.9603412512       -1.5348613190       -1.7440903026
 H          1.1671257689       -1.2858047746        0.6825550680
 H         -4.8669347362        0.5653366318        1.6348733723
 H         -6.5258863278       -0.7438011405        2.8858653166
 H         -6.2531376062       -3.1826218962        3.1335046068
 H         -4.2915162040       -4.3071887093        2.1454523015
 H         -2.6202305265       -2.9862958719        0.8864655855
 H         -4.0956226441        3.1207754939       -0.7614109113
 H         -6.3819767743        3.6063133746       -1.5742005983
  57
  -91.7087113638000       0.186481024957590      !
 C         -6.9075350298        1.8802422835       -1.4593927345
 C         -6.1002413734        1.4136525106       -2.4838893068
 C         -4.8191062843        0.9736983275       -2.2110862198
 C         -4.3369098202        0.9811673438       -0.9044678626
 C         -2.9706252312        0.5187468315       -0.6368777260
 N         -2.0513168072        0.8539997822       -1.5114081935
 C         -0.7660153713        0.5677260310       -1.2425575300
 C          0.2466047194        0.8964174235       -2.1662019271
 C          1.5554910366        0.6873929597       -1.8415304574
 C          1.9149809168        0.1410129966       -0.5878110949
 N          3.2808948446       -0.0329921008       -0.2891749743
 C          3.8788777157        0.6447391041        0.7777850538
 C          3.1733952138        1.5129032706        1.6013139092
 C          3.8039989209        2.1758917299        2.6431255187
 C          5.1513499527        1.9898246225        2.8759422976
 C          5.8765769213        1.1483446714        2.0458922016
 C          5.2534524287        0.4884595194        1.0029331607
 O          6.0489628948       -0.2963121440        0.2055140544
 C          5.4417944112       -0.9772584660       -0.8191988325
 C          6.2444034538       -1.7977686516       -1.5896952579
 C          5.6967032778       -2.5412611131       -2.6247157130
 C          4.3396691527       -2.4738006914       -2.8662240609
 C          3.5303369504       -1.6525964115       -2.0959865667
 C          4.0692429662       -0.8724232007       -1.0803437736
 C          0.9459195832       -0.2096848535        0.3220495146
 C         -0.4087668517       -0.0151003271        0.0046531041
 N         -1.3676436888       -0.4390624214        0.8502591117
 C         -2.6235246624       -0.2362044296        0.5328639701
 C         -3.6317716172       -0.8468482178        1.4071162918
 C         -4.7629777167       -1.4656702961        0.8791981253
 C         -5.6896041474       -2.0497361770        1.7215722195
 C         -5.5014733625       -2.0215068517        3.0940968427
 C         -4.3697950600       -1.4231224210        3.6235898944
 C         -3.4346547911       -0.8459478705        2.7857362324
 C         -5.1470074829        1.4689679032        0.1189610257
 C         -6.4242030855        1.9154122574       -0.1613663615
 H         -7.9091837802        2.2232928312       -1.6723471950
 H         -6.4709075991        1.3947352833       -3.4983034992
 H         -4.1771672255        0.6127829384       -3.0001875447
 H         -0.0410737106        1.3317809909       -3.1102867080
 H          2.3425752981        0.9536442573       -2.5318508075
 H          2.1233305510        1.6821918569        1.4229811022
 H          3.2283627124        2.8412964493        3.2679836379
 H          5.6455636503        2.4987651797        3.6883071529
 H          6.9345795317        0.9945713083        2.1862490950
 H          7.2969301706       -1.8437324403       -1.3600101686
 H          6.3312588760       -3.1754876145       -3.2233070461
 H          3.8946803378       -3.0633359242       -3.6529915500
 H          2.4681921190       -1.6245745779       -2.2828617046
 H          1.1995054739       -0.6501251041        1.2738981952
 H         -4.9067230553       -1.5036279013       -0.1908147913
 H         -6.5624317536       -2.5307581720        1.3051177698
 H         -6.2320701397       -2.4731555239        3.7488668717
 H         -4.2151389075       -1.4096972554        4.6925745464
 H         -2.5452778088       -0.3817598827        3.1839863040
 H         -4.7694796706        1.5144450117        1.1300379682
 H         -7.0453347990        2.2944913156        0.6368194225
  57
  -91.7087032694000       0.184890551912981      !
 C         -6.9698691157        1.1180767130       -1.9143941761
 C         -6.5764343406       -0.1225568219       -1.4392207718
 C         -5.2782384907       -0.3257134858       -1.0112843241
 C         -4.3568110942        0.7179986836       -1.0577744520
 C         -2.9679688394        0.5316794573       -0.6202001785
 N         -2.0374062748        1.0567980821       -1.3816389810
 C         -0.7474525656        0.8296633314       -1.0774169270
 C          0.2773960634        1.3791750673       -1.8738100356
 C          1.5816787807        1.0895079045       -1.5959053802
 C          1.9233422552        0.2466553736       -0.5136749886
 N          3.2861926142       -0.0089084440       -0.2571310791
 C          3.8937550776        0.4376495059        0.9200779174
 C          3.1949255293        1.1171915604        1.9094995652
 C          3.8356532876        1.5576642709        3.0574915457
 C          5.1856465522        1.3338901628        3.2333621177
 C          5.9030588989        0.6776048341        2.2444365677
 C          5.2698660049        0.2389321775        1.0966267810
 O          6.0560480855       -0.3732308747        0.1517248084
 C          5.4406602179       -0.8212695199       -0.9899847036
 C          6.2345328560       -1.4632193314       -1.9218593054
 C          5.6771876349       -1.9669370079       -3.0882263046
 C          4.3202472950       -1.8396938041       -3.3043812293
 C          3.5193576408       -1.1965076196       -2.3727935818
 C          4.0674506810       -0.6580853419       -1.2152587479
 C          0.9440946616       -0.2969405352        0.2827650427
 C         -0.4055203722       -0.0022833346        0.0235464673
 N         -1.3680580259       -0.4787710597        0.8371846872
 C         -2.6197563477       -0.2016546706        0.5623745001
 C         -3.6235263412       -0.6545443553        1.5336623106
 C         -4.6771978281        0.1695085301        1.9225767890
 C         -5.6049832102       -0.2805198293        2.8425170116
 C         -5.4944465389       -1.5520934895        3.3817328120
 C         -4.4371770816       -2.3680620146        3.0141492798
 C         -3.5010593641       -1.9201077276        2.1015050792
 C         -4.7508241652        1.9544047227       -1.5631832285
 C         -6.0528691059        2.1541662357       -1.9806778012
 H         -7.9879998209        1.2744236204       -2.2390413868
 H         -7.2850111423       -0.9368377362       -1.4026786233
 H         -4.9728273447       -1.2992038149       -0.6564728535
 H          0.0006049851        2.0213256230       -2.6951010478
 H          2.3783479529        1.5077113281       -2.1937596925
 H          2.1421397503        1.3124258754        1.7807500531
 H          3.2655641425        2.0803072600        3.8101855047
 H          5.6881770412        1.6717493883        4.1258565046
 H          6.9624775652        0.5011862840        2.3412484559
 H          7.2878735347       -1.5623675109       -1.7137784565
 H          6.3049650543       -2.4640471896       -3.8107173727
 H          3.8688782195       -2.2438399728       -4.1974002946
 H          2.4571360942       -1.1184331962       -2.5448907375
 H          1.1864288852       -0.9415292917        1.1134535171
 H         -4.7595631704        1.1672742390        1.5168358147
 H         -6.4184622148        0.3643889846        3.1406152986
 H         -6.2276733260       -1.9030482701        4.0928615223
 H         -4.3420409543       -3.3555290073        3.4416438055
 H         -2.6697860466       -2.5436988178        1.8094724762
 H         -4.0244982551        2.7513335129       -1.6136885801
 H         -6.3537710368        3.1194401208       -2.3608114587
  57
  -91.7086031300000       0.166300607996158      !
 C         -6.9904691110       -0.4569821669       -2.0606074924
 C         -6.1808001656       -1.5740184988       -2.1855300544
 C         -4.8799147525       -1.5426861059       -1.7205139521
 C         -4.3801890204       -0.3954402078       -1.1092651602
 C         -2.9946385806       -0.3766856998       -0.6277822692
 N         -2.0966950785       -0.9621090849       -1.3844005619
 C         -0.7978612814       -0.8433111796       -1.0600166375
 C          0.1945186475       -1.4707605028       -1.8398630106
 C          1.5129379080       -1.2511849050       -1.5642915903
 C          1.9030508153       -0.3977917413       -0.5061175392
 N          3.2769848989       -0.1922479315       -0.2715626971
 C          3.8692264048       -0.5642753611        0.9396597970
 C          3.1519439974       -1.1535258245        1.9730387899
 C          3.7764065118       -1.5149193189        3.1571590989
 C          5.1293067805       -1.3029601144        3.3267056584
 C          5.8660932207       -0.7438522461        2.2935127433
 C          5.2489604618       -0.3853570140        1.1094389398
 O          6.0554132482        0.1271640248        0.1235862299
 C          5.4540454207        0.5176450824       -1.0460208269
 C          6.2677200809        1.0778000758       -2.0130873846
 C          5.7274730285        1.5254637841       -3.2096436131
 C          4.3671303554        1.4275976230       -3.4198114132
 C          3.5466864712        0.8665566005       -2.4528609002
 C          4.0769407274        0.3793439105       -1.2645131671
 C          0.9550529134        0.2064569643        0.2851660313
 C         -0.4081090983       -0.0297168688        0.0395748724
 N         -1.3419213873        0.4752657398        0.8680192549
 C         -2.6077038778        0.2752560369        0.5909520822
 C         -3.5811288993        0.7118977936        1.5981051408
 C         -4.7007349542       -0.0599117586        1.9021878130
 C         -5.5941157928        0.3653274567        2.8666859852
 C         -5.3831116893        1.5596153463        3.5368083844
 C         -4.2612933203        2.3212186980        3.2530157322
 C         -3.3604178768        1.8976642433        2.2947212723
 C         -5.1933516985        0.7312448212       -1.0033828097
 C         -6.4901999352        0.6966780847       -1.4785225138
 H         -8.0074928438       -0.4818488518       -2.4230863389
 H         -6.5648913758       -2.4710164351       -2.6487597513
 H         -4.2362819684       -2.4038933320       -1.8156762076
 H         -0.1167089004       -2.1110871887       -2.6502989800
 H          2.2842460479       -1.7294638598       -2.1503061941
 H          2.0969063503       -1.3408525892        1.8518870869
 H          3.1908016272       -1.9656300789        3.9434962942
 H          5.6188084069       -1.5764735772        4.2479971113
 H          6.9284735807       -0.5826669704        2.3832554897
 H          7.3232740754        1.1584199367       -1.8078706254
 H          6.3709294704        1.9571946650       -3.9598771524
 H          3.9278243750        1.7914523409       -4.3358690838
 H          2.4826496900        0.8138019231       -2.6231935122
 H          1.2318352367        0.8564159621        1.1007469287
 H         -4.8613753650       -1.0004091624        1.3957668482
 H         -6.4587059283       -0.2392298244        3.0981189231
 H         -6.0880939438        1.8911426370        4.2848150605
 H         -4.0877518484        3.2463069710        3.7829731954
 H         -2.4798447011        2.4784222431        2.0662041095
 H         -4.8030083910        1.6377838186       -0.5642744852
 H         -7.1134800127        1.5750014812       -1.3963077612
  57
  -91.7083358704000       0.125334268002622      !
 C         -6.9595618928        1.5669460170       -1.6460084395
 C         -6.1051296283        1.0609406081       -2.6117141580
 C         -4.8064901705        0.7249750404       -2.2798616921
 C         -4.3535378638        0.8763648835       -0.9716845999
 C         -2.9704215578        0.5061248672       -0.6460729784
 N         -2.0495127872        0.8595682376       -1.5120364085
 C         -0.7602608453        0.6134463447       -1.2209062647
 C          0.2554517149        0.9813236198       -2.1263684464
 C          1.5638876716        0.7720638095       -1.8012292795
 C          1.9219768291        0.1769662425       -0.5688359976
 N          3.2863141201       -0.0225350018       -0.2848451645
 C          3.8907978858        0.5622025846        0.8333285449
 C          3.1940033130        1.3635128249        1.7291497852
 C          3.8299473321        1.9270680358        2.8247485086
 C          5.1751755223        1.7085033673        3.0411741548
 C          5.8937271638        0.9403292216        2.1379191143
 C          5.2653118281        0.3812592615        1.0404609739
 O          6.0577676730       -0.3275881183        0.1724403893
 C          5.4447013563       -0.9237464460       -0.8998349859
 C          6.2442741413       -1.6762501156       -1.7401315954
 C          5.6910174952       -2.3389789087       -2.8254112052
 C          4.3305435972       -2.2646068876       -3.0448478608
 C          3.5248865780       -1.5108258169       -2.2052074045
 C          4.0698153030       -0.8029199897       -1.1407012797
 C          0.9496877465       -0.1965628553        0.3291307594
 C         -0.4039212591        0.0177069990        0.0195603093
 N         -1.3615077573       -0.3881843781        0.8768120724
 C         -2.6176129069       -0.1896586167        0.5567595668
 C         -3.6236528916       -0.7322752666        1.4792550501
 C         -4.7450264792       -1.4126327541        1.0107334743
 C         -5.6727028705       -1.9151504226        1.9033147460
 C         -5.4950073920       -1.7436708054        3.2667024720
 C         -4.3715235661       -1.0853233308        3.7388310561
 C         -3.4353483642       -0.5894944264        2.8514199502
 C         -5.2109493233        1.4048184445       -0.0094669741
 C         -6.5058681381        1.7475391037       -0.3493579211
 H         -7.9752874446        1.8275206794       -1.9044732128
 H         -6.4522421507        0.9298669041       -3.6262131606
 H         -4.1286465204        0.3336498398       -3.0232672798
 H         -0.0308332293        1.4416374136       -3.0589533858
 H          2.3519679499        1.0698347108       -2.4773979990
 H          2.1462250458        1.5597795585        1.5668561128
 H          3.2597475571        2.5400294503        3.5055998930
 H          5.6728527853        2.1374278611        3.8964577219
 H          6.9509188775        0.7677294385        2.2616309712
 H          7.2991686192       -1.7333756507       -1.5242794770
 H          6.3232288249       -2.9183936215       -3.4795226851
 H          3.8800384007       -2.7958656305       -3.8690632014
 H          2.4605615754       -1.4790778024       -2.3779861778
 H          1.1980377277       -0.6695314111        1.2666116977
 H         -4.8812737986       -1.5609003214       -0.0506008543
 H         -6.5390862004       -2.4434269162        1.5333048748
 H         -6.2277034376       -2.1297661015        3.9599769750
 H         -4.2242283094       -0.9604892991        4.8016768306
 H         -2.5528059639       -0.0788110720        3.2057908364
 H         -4.8581834293        1.5619750477        0.9993211959
 H         -7.1646386312        2.1586167880        0.4013775735
  57
  -91.7082946899000       0.119989869632111      !
 C         -6.8447969148        1.5188733126       -1.8948185261
 C         -6.3554528736        0.2234388690       -1.8474989251
 C         -5.0965145186       -0.0266268266       -1.3365063133
 C         -4.3099345287        1.0245880942       -0.8690586410
 C         -2.9566996879        0.7762903022       -0.3598064620
 N         -2.0192845579        1.6137872632       -0.7363453682
 C         -0.7384164769        1.3232683909       -0.4521314843
 C          0.2989018325        2.1887935781       -0.8542498967
 C          1.6001118196        1.8058077563       -0.7026514883
 C          1.9279008078        0.5544528990       -0.1308202134
 N          3.2798620085        0.1671556729       -0.0599401057
 C          4.2051265254        0.9493873986        0.6358400781
 C          3.8207371672        2.0418161322        1.4037215019
 C          4.7636749139        2.8043010771        2.0761057416
 C          6.1031238272        2.4792218363        2.0059106254
 C          6.4988691298        1.3666217273        1.2784818853
 C          5.5623342902        0.6025722484        0.6074424611
 O          6.0247434289       -0.5023426852       -0.0611843361
 C          5.0994427512       -1.2864952700       -0.7036066068
 C          5.5809562456       -2.4078268551       -1.3539734697
 C          4.7196777507       -3.2319681971       -2.0620531202
 C          3.3788186376       -2.9127778654       -2.1281842316
 C          2.8905786712       -1.7924074918       -1.4735278227
 C          3.7333735794       -0.9740209806       -0.7317234616
 C          0.9358501235       -0.2816516582        0.3249987478
 C         -0.4102656336        0.0911964501        0.1785800850
 N         -1.3866419500       -0.6947377239        0.6700732963
 C         -2.6361741837       -0.3553256277        0.4628361518
 C         -3.6608251073       -1.1717299162        1.1221144226
 C         -4.8144869519       -0.6015192744        1.6565230288
 C         -5.7587946745       -1.3989362950        2.2745592573
 C         -5.5653240563       -2.7678178817        2.3679487420
 C         -4.4101568355       -3.3377806503        1.8579179095
 C         -3.4594533692       -2.5449905727        1.2445825755
 C         -4.7971493993        2.3267668131       -0.9427122729
 C         -6.0617715612        2.5693177425       -1.4448610910
 H         -7.8318095550        1.7091811004       -2.2897398953
 H         -6.9572541160       -0.5962068705       -2.2117175142
 H         -4.7129098137       -1.0363890964       -1.3148211198
 H          0.0352532905        3.1281244252       -1.3144764631
 H          2.4027581116        2.4430534775       -1.0441268330
 H          2.7751028541        2.2953338918        1.4829900587
 H          4.4373386805        3.6523524986        2.6581676463
 H          6.8413264888        3.0726380749        2.5217887194
 H          7.5340717490        1.0701939195        1.2221089528
 H          6.6380801460       -2.6132039274       -1.2991606717
 H          5.1034782523       -4.1063577046       -2.5633508931
 H          2.6968505806       -3.5305373059       -2.6919952926
 H          1.8427663363       -1.5501023060       -1.5517464746
 H          1.1660136750       -1.2250591188        0.7954372169
 H         -4.9638063352        0.4669041229        1.6022994383
 H         -6.6505920975       -0.9499286480        2.6866050072
 H         -6.3103305537       -3.3876385619        2.8446826441
 H         -4.2503777048       -4.4028802526        1.9405601762
 H         -2.5527100784       -2.9736802365        0.8459045207
 H         -4.1734792324        3.1371392146       -0.5971203448
 H         -6.4367841196        3.5812204731       -1.4921847178
  57
  -91.7068715002000       2.661288030245148E-002 !
 C         -6.8857092115        2.1768305976       -1.0543874742
 C         -6.0686384334        1.9676764335       -2.1533111663
 C         -4.7881050427        1.4774379397       -1.9813752732
 C         -4.3177523904        1.1742393946       -0.7060470079
 C         -2.9534798040        0.6590478790       -0.5435921450
 N         -2.0231455785        1.2050256268       -1.2878014511
 C         -0.7388321550        0.8590898169       -1.0805069645
 C          0.2841247640        1.4206215135       -1.8692515797
 C          1.5902287417        1.1388504438       -1.5841428543
 C          1.9251851938        0.2880859290       -0.5095640677
 N          3.2946454996        0.0395806104       -0.2327188600
 C          4.0089889091        0.9084753626        0.5870649752
 C          3.4174639432        2.0193357408        1.1720571622
 C          4.1556743735        2.8637334304        1.9887749913
 C          5.4895571644        2.6082100494        2.2297521831
 C          6.0935558608        1.4996610035        1.6509981997
 C          5.3643416374        0.6547906221        0.8374476603
 O          6.0212040295       -0.4258323213        0.2984859737
 C          5.3051386405       -1.2538101459       -0.5332831898
 C          5.9764819651       -2.3209948624       -1.0970360422
 C          5.3126111749       -3.1949586842       -1.9478493370
 C          3.9776056373       -2.9925329231       -2.2303126595
 C          3.2972136395       -1.9223718930       -1.6674849081
 C          3.9481468354       -1.0432904384       -0.8133936413
 C          0.9505798526       -0.2927769175        0.2605295920
 C         -0.4019373386       -0.0296916755       -0.0231096600
 N         -1.3724136400       -0.6532751678        0.6712306257
 C         -2.6233302404       -0.3698272542        0.4028336389
 C         -3.6442968729       -1.1702449060        1.0882941066
 C         -4.7766176978       -1.6250430822        0.4157726970
 C         -5.7159063406       -2.3900877097        1.0803702869
 C         -5.5394469135       -2.7071111570        2.4176205879
 C         -4.4064563555       -2.2732650388        3.0862767559
 C         -3.4588645527       -1.5157581232        2.4247096442
 C         -5.1373984445        1.4038599455        0.3970144739
 C         -6.4133057905        1.9037954748        0.2192896791
 H         -7.8868025916        2.5590530263       -1.1888565988
 H         -6.4307444192        2.1898447097       -3.1463695689
 H         -4.1386968735        1.3143836481       -2.8279886046
 H          0.0070354117        2.0786379315       -2.6778815459
 H          2.3902157890        1.5661660409       -2.1704605316
 H          2.3734042348        2.2218121692        0.9878023071
 H          3.6744102432        3.7213538641        2.4331930903
 H          6.0679907359        3.2611638904        2.8641707149
 H          7.1340502694        1.2745748659        1.8225276242
 H          7.0197535407       -2.4540727161       -0.8590498258
 H          5.8460698991       -4.0256858900       -2.3822129641
 H          3.4509985811       -3.6638919629       -2.8913875596
 H          2.2524771323       -1.7669337369       -1.8906870998
 H          1.1973937023       -0.9559824998        1.0749763301
 H         -4.9112566695       -1.3945004308       -0.6309537882
 H         -6.5896753238       -2.7418422594        0.5518368452
 H         -6.2805109733       -3.2983543324        2.9348737276
 H         -4.2609018868       -2.5286333003        4.1255714857
 H         -2.5691101839       -1.1749900292        2.9317678528
 H         -4.7684387102        1.2074494729        1.3931580720
 H         -7.0420899340        2.0822234476        1.0790596418
