63
 energy: -96.528453036623 gnorm: 0.000052775988 xtb: 6.7.1 (edcfbbe)
C           -5.29011238681331        0.71900206216051        0.00016448173853
C           -3.76266465392167        0.91216822476951       -0.00004112834970
C           -3.41446394148010        2.41192384682840       -0.00022448309598
C           -3.19311680568477        0.28186655728423        1.25682172142110
C           -3.58007970726185        0.76301730168362        2.49990037305562
C           -3.08951209508305        0.23174353579319        3.67838395027518
C           -2.18407981790795       -0.81230534182718        3.62417177029241
C           -1.78798968131598       -1.31384444906870        2.40245734149266
C           -2.28375949643700       -0.77947459620103        1.21005929530686
N           -1.88965462964150       -1.32621740544969       -0.00005868855494
C           -0.83396740541184       -2.27450321445388       -0.00008836280481
C           -1.06933615769873       -3.62352684010259       -0.00016034038561
C           -0.00083018022353       -4.53886126615524       -0.00019538585729
C            1.29636397262849       -4.11064146261505       -0.00016893815674
C            1.57939097976150       -2.72785971851143       -0.00009900895461
N            2.84891726676536       -2.29629969575099       -0.00008926207099
C            3.06329209350454       -0.99442787281473       -0.00001852457186
C            4.42392723426113       -0.50347578814732       -0.00001679981840
C            5.48022764874090       -1.41855894014939       -0.00012765729401
C            6.78548396075996       -0.98538906329945       -0.00013645899930
C            7.05061262265223        0.37926769660335       -0.00002932945230
C            6.01817946021727        1.29189757645238        0.00007799686619
C            4.67960518796720        0.88259233071560        0.00008700108536
C            3.57166937379107        1.82898037285507        0.00019890412776
C            3.76125274608215        3.21587661456413        0.00032973339895
C            2.69368991552711        4.08734916196715        0.00042851667488
C            1.38874225174056        3.60716646378063        0.00039897402887
C            1.17025183849032        2.24956236183613        0.00027453978025
C            2.24489766184074        1.35610240131196        0.00017514314846
C            1.97894306226100       -0.06398494253020        0.00005894951841
N            0.72741511672798       -0.47630446440733        0.00003399324543
C            0.50230552913959       -1.79518034490785       -0.00004872442417
C           -2.28403000041467       -0.77968444905615       -1.21018334124670
C           -1.78848568328679       -1.31422034321800       -2.40260105382945
C           -2.18486850676785       -0.81290477786097       -3.62431239745141
C           -3.09036483872994        0.23108943910772       -3.67850123655910
C           -3.58068031084525        0.76255251391445       -2.49999810101317
C           -3.19342024807486        0.28163034310781       -1.25692386724657
H           -5.73817629524583        1.17044500291714       -0.88097181970779
H           -5.73795988820092        1.17058599448949        0.88133901288412
H           -5.52812509605965       -0.34312259604982        0.00027867363600
H           -3.81762003852667        2.90555788663924        0.87969545157286
H           -2.33359151092551        2.53925920746135       -0.00036588890737
H           -3.81782606908521        2.90538788562193       -0.88014455597587
H           -4.28658564268475        1.57755277567334        2.55787694917055
H           -3.41162463137215        0.63038689435085        4.62846658700097
H           -1.78605718214691       -1.24037753469850        4.53240012876922
H           -1.08381150070444       -2.13163446856223        2.36738475441699
H           -2.08707756724661       -3.98484997015598       -0.00018853417254
H           -0.22275429454362       -5.59565996404634       -0.00024796913736
H            2.12496277647445       -4.80121463030612       -0.00020703696515
H            5.23561080576009       -2.46911738007167       -0.00020786263238
H            7.59820311234386       -1.69613649737050       -0.00021786357171
H            8.07260045983111        0.72931706831532       -0.00003076314010
H            6.26372297675652        2.34177384908924        0.00015652476757
H            4.75775781004534        3.62771653918677        0.00035254658775
H            2.87497643431936        5.15233737272630        0.00052365248162
H            0.55725181153727        4.29589492295919        0.00048010728781
H            0.17358551111874        1.83623386267458        0.00026778899266
H           -1.08424648324276       -2.13195812256698       -2.36754666461989
H           -1.78702383612860       -1.24111001902118       -4.53255591957485
H           -3.41271347877218        0.62955133893589       -4.62857966486148
H           -4.28722455915614        1.57705575357790       -2.55795522963762
