63
 energy: -96.489797391469 gnorm: 0.000121552428 xtb: 6.7.1 (edcfbbe)
C           -5.03333239418226        2.01793684461801        0.22818614766485
C           -3.65113041338600        1.55284395384460       -0.26665033413259
C           -3.05333188800194        2.58798188033346       -1.23833815494711
C           -2.73440414656101        1.41980530115907        0.93016265349078
C           -2.47931751007130        2.52810001501024        1.72677654666761
C           -1.67337847055209        2.45472178179850        2.84741750870055
C           -1.12787215719936        1.23538118183283        3.21301261399386
C           -1.36471249017312        0.12133842982534        2.43996849267435
C           -2.13721741572880        0.20123024068324        1.27344018655513
N           -2.31528212899148       -0.93762394476415        0.50607109478695
C           -1.35737998195581       -1.97234189088102        0.65931229876753
C           -1.70303245299024       -3.27057788870718        1.00938848812450
C           -0.72871851778489       -4.25272626336189        1.08616556180474
C            0.59794775706414       -3.95716685190941        0.81967858080733
C            0.98687407268553       -2.66208512156292        0.48476643138212
N            2.25352262763339       -2.31750192632888        0.25044134988718
C            2.61216835215614       -1.06225191094843        0.00179969014948
C            3.97855288104739       -0.71625081336111       -0.24066718250394
C            4.95223561637789       -1.72796146672554       -0.21829617816235
C            6.27069933866847       -1.43921904588197       -0.45623809975448
C            6.64988666849212       -0.12376652720130       -0.72461571483165
C            5.71099363369640        0.87933326705288       -0.74738272290246
C            4.35330704277912        0.62213309204939       -0.50523261523017
C            3.34565681787956        1.65765379170372       -0.50989960078081
C            3.63657632795736        3.01176139807668       -0.73271746562693
C            2.65243564198524        3.97104364520248       -0.71738641492129
C            1.32479573661106        3.61859004571371       -0.47171759097216
C            1.00310793243745        2.30494508738975       -0.25211930758425
C            1.99555926026916        1.31134158806698       -0.27201121023224
C            1.62237514198399       -0.04569196859096       -0.03527270068899
N            0.35121020255776       -0.37815453130690        0.16279399676989
C           -0.01592599418307       -1.62897872630247        0.41470843056180
C           -3.10871264438180       -0.91704013009298       -0.63437876824557
C           -3.22996777884577       -2.06818202651674       -1.42091611913915
C           -4.05115803686731       -2.09264033585238       -2.52695669907353
C           -4.76882663751786       -0.96256749244928       -2.87834314621743
C           -4.62828142617499        0.18640109325070       -2.12399301799732
C           -3.80360173298059        0.24036401316210       -1.00776492605095
H           -5.72113548953285        2.14762858553908       -0.60247012599569
H           -4.95737520457868        2.96411931373736        0.75652905182480
H           -5.45079593200374        1.27758763087139        0.90805316989373
H           -2.92077701516919        3.54848998563110       -0.74802742562540
H           -2.08315277057903        2.24561292630588       -1.59386668934294
H           -3.70159701647641        2.73102036743811       -2.09844778827581
H           -2.91628983897060        3.48059129504308        1.46733352790976
H           -1.48418625487043        3.33855314692190        3.43716452357100
H           -0.51850297388245        1.15262824164542        4.10019750036151
H           -0.95170824670331       -0.83074902398760        2.73576941735375
H           -2.73511463043816       -3.49889107327945        1.22829862640916
H           -1.00525416787184       -5.25876684717642        1.36152392493390
H            1.36066850306402       -4.71597403632258        0.89217631716558
H            4.62736886566483       -2.73619081804743       -0.01095501441714
H            7.01356548244817       -2.22279348938176       -0.43870856337657
H            7.68772038044685        0.10726364759262       -0.91548385954196
H            6.03760144298083        1.88517844255805       -0.95886615020891
H            4.65309100238649        3.32057803773122       -0.91842111991399
H            2.90905539197288        5.00573574000284       -0.89233251983575
H            0.55768074064705        4.37847148594592       -0.45312212082851
H           -0.01281705045077        2.00311911438792       -0.04764486473888
H           -2.66469620232683       -2.95010509796041       -1.16668659876598
H           -4.12769216180505       -2.99478394019623       -3.11507132603594
H           -5.41991012955836       -0.97049683147596       -3.73904301345046
H           -5.17324421443489        1.06868209666056       -2.42348366667136
