  116
       -170.00342661
 C        -11.5772499037       -4.9418427717       -0.8085779691
 C        -11.4454195430       -4.1559777032        0.5038799625
 C        -12.7960111633       -3.4984584947        0.8005556823
 C        -11.1204375304       -5.1174215443        1.6558876296
 C        -10.3194631805       -3.1423799566        0.3652742432
 C         -9.0254679347       -3.6026103670        0.0873888308
 C         -7.9449391834       -2.7578716313       -0.0655514461
 C         -8.1630327816       -1.3935097535        0.0525822679
 C         -9.4498684278       -0.9063899063        0.3645996734
 C        -10.5186301113       -1.7785066236        0.5142656644
 C         -9.3278430548        0.5220147639        0.4797463997
 C        -10.2437147219        1.5302071682        0.7442018516
 C         -9.8249852961        2.8516853641        0.7654408076
 C        -10.7710408789        4.0074838302        1.0547422184
 C        -10.8019673933        4.9489197778       -0.1576808770
 C        -10.2722415665        4.7687797323        2.2910953954
 C        -12.2030162785        3.5407714367        1.3305831779
 C         -8.4785291333        3.1307286385        0.4961906917
 C         -7.5473483453        2.1480724189        0.2281619764
 C         -7.9716816410        0.8279275095        0.2396691437
 N         -7.2749809546       -0.3370904867       -0.0210727293
 C         -5.9141869466       -0.4286058684       -0.3084890046
 C         -4.9779603963        0.2587418696        0.4683613950
 C         -3.6377161916        0.1801170417        0.1750444653
 C         -3.1687129894       -0.5966613350       -0.8979410712
 C         -1.7567828780       -0.7143938002       -1.1810258871
 C         -1.2246056131       -1.9730234701       -1.5049770275
 C          0.1201604217       -2.1823318725       -1.6105122296
 C          1.0445441255       -1.1161964781       -1.4044557988
 C          2.4226737302       -1.3049391030       -1.4925594002
 C          3.3042719311       -0.2576034204       -1.2795817013
 C          2.8433931842        1.0275400950       -0.9765833827
 C          3.7384893554        2.1303648187       -0.7362957084
 C          5.1477004174        1.9294468928       -0.4890708778
 C          5.6011332063        0.8686949273        0.3131337670
 C          6.9396886861        0.6782165857        0.5578160268
 C          7.8921757087        1.5358682453       -0.0026883524
 C          9.3110026118        1.3655985896        0.2026364979
 N         10.1782218733        2.3483865961        0.2646361526
 N         11.3829081594        1.8385366364        0.5017318714
 C         11.2798662581        0.5355498603        0.5822474918
 C         12.3983342442       -0.3636525888        0.8007699749
 C         13.4502228453        0.0733539164        1.6055030067
 C         14.5376457239       -0.7466134001        1.8337261530
 C         14.5927235599       -2.0064813518        1.2585980802
 C         13.5620915685       -2.4357056326        0.4393172335
 C         12.4695051376       -1.6214953897        0.2055427218
 N          9.9660238814        0.1685397657        0.3992254544
 C          9.4221530143       -1.1265516187        0.3937459953
 C          9.6123694976       -1.9624355214        1.4888560296
 C          9.0757036712       -3.2365363379        1.4749083056
 C          8.3484221662       -3.6760596835        0.3808614871
 C          8.1597327482       -2.8399473839       -0.7076639772
 C          8.6969916089       -1.5663677294       -0.7090058286
 C          7.4495651454        2.6280106815       -0.7581896050
 C          6.1103307238        2.8227980445       -0.9904168398
 C          3.2074179037        3.4297013148       -0.6876675625
 C          1.8632150321        3.6617202713       -0.7406658728
 C          0.9380507434        2.5827886866       -0.8585817721
 C         -0.4394020767        2.7907530651       -0.8989239551
 C         -1.3216944861        1.7277232554       -1.0053458236
 C         -0.8617230523        0.4094148768       -1.0832356899
 C          0.5394637370        0.1844248314       -1.1477650046
 C          1.4425270523        1.2628894774       -0.9847960021
 C         -4.1205674316       -1.3033107158       -1.6513175842
 C         -5.4636752288       -1.2130998603       -1.3728445160
 H        -10.6643217929       -5.4825252928       -1.0416673539
 H        -11.7914204109       -4.2636483019       -1.6320716869
 H        -12.3893420624       -5.6620070776       -0.7341042980
 H        -13.5631388508       -4.2662767971        0.8789449280
 H        -12.7686392131       -2.9552298213        1.7423084742
 H        -13.0833056849       -2.8174882269        0.0027159669
 H        -10.2021170761       -5.6667835409        1.4685698670
 H        -11.0025338669       -4.5637487258        2.5851459288
 H        -11.9271051651       -5.8365730591        1.7821918814
 H         -8.8507984279       -4.6632775115       -0.0089508991
 H         -6.9601468953       -3.1567291567       -0.2560278414
 H        -11.4874092685       -1.3716165384        0.7511573481
 H        -11.2708942492        1.2600154801        0.9232322099
 H        -11.4949770777        5.7683694863        0.0217759926
 H         -9.8212894144        5.3715947330       -0.3575715642
 H        -11.1274987549        4.4092867618       -1.0448177306
 H        -10.9474015927        5.5898680898        2.5234733661
 H        -10.2302065132        4.1029450186        3.1503734113
 H         -9.2799406439        5.1804453301        2.1307103764
 H        -12.6188375986        3.0238622086        0.4687704147
 H        -12.2403875080        2.8822916618        2.1954031912
 H        -12.8317611568        4.4041847055        1.5388619474
 H         -8.1418451853        4.1561079129        0.4897750496
 H         -6.5245198378        2.4094130920        0.0030908695
 H         -5.3145667694        0.8250696585        1.3239877056
 H         -2.9238790463        0.6771284122        0.8150430096
 H         -1.9019824950       -2.8090500288       -1.6072670205
 H          0.5093069859       -3.1667374214       -1.8249685872
 H          2.8052117980       -2.2866851621       -1.7331898352
 H          4.3645262064       -0.4337427990       -1.3798401147
 H          4.8778007320        0.2217669825        0.7877350657
 H          7.2482635202       -0.1238234803        1.2124404844
 H         13.3926169094        1.0589489838        2.0402934125
 H         15.3458931673       -0.4041514501        2.4627851680
 H         15.4414023606       -2.6490982089        1.4406370865
 H         13.6102187151       -3.4092555003       -0.0263810111
 H         11.6851559131       -1.9581875620       -0.4565128500
 H         10.1780538473       -1.6090082210        2.3383888407
 H          9.2235292519       -3.8859621713        2.3244701504
 H          7.9287735566       -4.6705431803        0.3763736916
 H          7.5954414001       -3.1812751992       -1.5624133062
 H          8.5586456554       -0.9075453433       -1.5536762013
 H          8.1874604509        3.3038841336       -1.1614566616
 H          5.7920440671        3.6504578104       -1.6066084832
 H          3.8844104607        4.2585176393       -0.5383690582
 H          1.4746138652        4.6666403602       -0.6660156643
 H         -0.8211481299        3.8005071574       -0.8482323763
 H         -2.3809836768        1.9271643574       -1.0618316691
 H         -3.7941666272       -1.8876358764       -2.4986371328
 H         -6.1836320901       -1.7230711658       -1.9955217374
