116
 energy: -170.006985023421 gnorm: 0.000052760643 xtb: 6.7.1 (edcfbbe)
C          -11.69556875666025       -4.64289679113009       -1.50636645995138
C          -11.62901402879525       -3.96486981286772       -0.13045492504581
C          -12.97739524765615       -3.28755238749487        0.12965744558108
C          -11.40857858913696       -5.02214896353259        0.96071947638716
C          -10.46818660759702       -2.98144488019740       -0.11502018304197
C           -9.17232280008815       -3.46066298967625       -0.34862425217183
C           -8.06070947071536       -2.64290232745504       -0.36285004061626
C           -8.24733153911970       -1.28627293023125       -0.14508927194159
C           -9.53752275483533       -0.78316148872197        0.12443661114891
C          -10.63806512523532       -1.62845105623880        0.13349902184848
C           -9.38364017033127        0.62651349782230        0.36290366150768
C          -10.28641349224343        1.64040463765407        0.65094662592884
C           -9.83358781003701        2.94140282638227        0.80436974388267
C          -10.76356142959196        4.10123285845020        1.12800657184329
C          -10.69451778937985        5.13440508271632       -0.00555351018058
C          -10.32083754101340        4.74708326180234        2.44865381885934
C          -12.22204069721338        3.66087915723486        1.28107695941941
C           -8.46540296672695        3.19658784267504        0.64203575850488
C           -7.54632787295626        2.20796037676029        0.35495209976544
C           -8.00692367314600        0.90577065253915        0.23373495827082
N           -7.32708849321033       -0.25745795105966       -0.07555601806877
C           -5.95377436997161       -0.36757889920207       -0.29213870713231
C           -5.04763368711267        0.21905903858231        0.59388719192373
C           -3.69417618629048        0.13064702624270        0.36630397902297
C           -3.18614372432702       -0.55548571355644       -0.74768279731849
C           -1.76192819136951       -0.67568793937354       -0.98008348275461
C           -1.23600551090677       -1.91439726387862       -1.37654771338910
C            0.10894891839196       -2.13033929172434       -1.47369001700208
C            1.04032676710466       -1.08681494209434       -1.18664803871105
C            2.41544988308675       -1.28059677247816       -1.28028123041931
C            3.30579443018863       -0.25430549396503       -0.99743848171025
C            2.85370579205150        1.00890674255125       -0.60998511414730
C            3.75691996337227        2.09050735814381       -0.30375123422128
C            5.17865919586885        1.87530803582714       -0.12676006703871
C            5.66740690885598        0.77776326959079        0.59752312706068
C            7.01777202757375        0.57649252332127        0.76491306059601
C            7.94048694535457        1.46207946384196        0.20129155012056
C            9.36994556495225        1.28416966948153        0.32295838804848
N           10.23732129734447        2.26466355611176        0.39726215366682
N           11.45471939512275        1.74609208987071        0.53191548047691
C           11.35717232346112        0.44028271881129        0.53630823811150
C           12.49018072196754       -0.46255941540187        0.62846948288748
C           13.59713557008801       -0.05686782024438        1.37372260604044
C           14.70341694216365       -0.87668312736836        1.47794414984262
C           14.72215584681199       -2.10573521206138        0.83751285496208
C           13.63482119165879       -2.50344010687554        0.07778708082784
C           12.52334117288031       -1.68862114958852       -0.03268293782414
N           10.03509658935154        0.08015721423217        0.40629761590934
C            9.48779115931480       -1.21271566765842        0.35559560801907
C            9.73330051963129       -2.11027953516334        1.38907589863380
C            9.18967285542810       -3.38022262407392        1.33202772834060
C            8.40093984533599       -3.75453620334572        0.25647953827265
C            8.15757956260865       -2.85716157864301       -0.77062457459636
C            8.70086833606974       -1.58677095610278       -0.72878813657627
C            7.46348022223765        2.58887053764756       -0.47600116775597
C            6.11346927374226        2.79289180350832       -0.63121165354996
C            3.23355374025706        3.38105914996508       -0.13641641905664
C            1.88937985033008        3.62303888058493       -0.15620522570506
C            0.95741003614531        2.56166451729193       -0.36443016254990
C           -0.41640753212585        2.78299357367535       -0.39308651493101
C           -1.30756205343255        1.73849718850325       -0.59605847121775
C           -0.85762810806453        0.42908958690558       -0.77673572296636
C            0.54296057894936        0.19642364656421       -0.84139314730178
C            1.45358307382939        1.25243698640430       -0.59462402921187
C           -4.10820459179905       -1.16776857335456       -1.60987074630040
C           -5.46322218104800       -1.06738124268441       -1.39602922962473
H          -10.78684030776206       -5.19835865075546       -1.72050882163398
H          -11.83059223834363       -3.89646389164705       -2.28649213083168
H          -12.53374132609317       -5.33570338931919       -1.54257331495404
H          -13.76948475576651       -4.03302963884575        0.09684418875821
H          -12.99805734655603       -2.82025058436428        1.11146490119831
H          -13.19096710126628       -2.53745512359435       -0.62835743423686
H          -12.24155331480944       -5.72192254205697        0.97817411498088
H          -10.49539804038368       -5.58531450090597        0.78987228708164
H          -11.33714300648540       -4.54553490648920        1.93625911968138
H           -9.02176517660578       -4.51526403981606       -0.52192677913654
H           -7.07717970639022       -3.05737894509090       -0.52486357798443
H          -11.60845702007092       -1.20951914252068        0.34100203280350
H          -11.33009745574482        1.39071613238771        0.74370830927096
H          -11.37151988787905        5.96114857902446        0.19932734266717
H           -9.69143588134603        5.53651111458454       -0.11654780350005
H          -10.98405554563540        4.67638896948350       -0.94913609921830
H          -10.98727060618803        5.56755442886509        2.70650991231124
H          -10.34815847442948        4.01428089058824        3.25255205640068
H           -9.31016057688086        5.13954046579995        2.38025806151742
H          -12.59880621042180        3.22625595562738        0.35807688886254
H          -12.33011988349791        2.93868906335094        2.08705672912093
H          -12.83817960507104        4.52541099305669        1.52016136757721
H           -8.10100161446912        4.20791088444354        0.73826310560934
H           -6.50400004166187        2.45218033693056        0.21644937738830
H           -5.41879056751750        0.71760109006335        1.47699421767638
H           -3.00588519115987        0.55014638547189        1.08506242110867
H           -1.91984259622518       -2.73346057251699       -1.54944456083263
H            0.49317018683090       -3.10161348946690       -1.74809267820525
H            2.79244955144817       -2.24710303723519       -1.58314518505080
H            4.36456275779198       -0.43288292075772       -1.10748404793000
H            4.96757647727404        0.10510546579133        1.07163016585677
H            7.35788155572795       -0.25861502561855        1.35986248077855
H           13.56719430349137        0.90563693677388        1.85987513771336
H           15.55524932936089       -0.55788457964415        2.06020774950420
H           15.58592373315397       -2.74842315930725        0.92235224141058
H           13.65263897899945       -3.45259065551210       -0.43768982743490
H           11.69316518135285       -2.00019889313124       -0.64947146425161
H           10.34691038159782       -1.80744630708202        2.22474194365915
H            9.38028277107055       -4.07772179805624        2.13358576370448
H            7.97602839621109       -4.74604708657036        0.21855496653427
H            7.54522454640699       -3.14752294812762       -1.61097063371382
H            8.51982874177662       -0.88022795049151       -1.52547736524897
H            8.18090993550108        3.28506844860749       -0.88158898251305
H            5.76461651527108        3.64962582881083       -1.18840774744359
H            3.91747627882775        4.19132128889491        0.07228608860339
H            1.50605592362605        4.61938160379761        0.00684963438880
H           -0.79187333568551        3.78747811478062       -0.25948693838378
H           -2.36424369440813        1.95258533524848       -0.64437720780543
H           -3.74765308279278       -1.68412406171315       -2.48707110178617
H           -6.15831859466295       -1.50235962867187       -2.09866065580670
