116
 energy: -170.072258071527 gnorm: 0.000048656944 xtb: 6.7.1 (edcfbbe)
C          -10.52975663519752       -4.79799324182999       -1.51600294177526
C          -10.57071859098008       -4.03831948172238       -0.18240581878566
C          -11.93245214534499       -3.34682800471364       -0.07270950600617
C          -10.44469613088548       -5.02811846100214        0.98430264576785
C           -9.41018706055538       -3.05494802353353       -0.13449361839687
C           -8.10182734244612       -3.54879744448265       -0.22598608474963
C           -6.98876769092049       -2.73361795106500       -0.20528449928543
C           -7.18529446177226       -1.36547879938195       -0.09847595346573
C           -8.49022428303698       -0.84496805829974        0.02668865128472
C           -9.59273217942804       -1.68913615137359        0.00344657699244
C           -8.34920354014750        0.57729579046494        0.17331478537079
C           -9.26757385335074        1.60912421588675        0.31676650045972
C           -8.82281547401633        2.91692712689206        0.41491632810970
C           -9.76984285642909        4.09613677417557        0.58467296892688
C           -9.60106447142285        5.05597133165080       -0.60154456669432
C           -9.43571853019091        4.82404308731449        1.89451650508306
C          -11.23865065841716        3.66731721200582        0.64219228798962
C           -7.44455542605110        3.16121681873444        0.34634308399387
C           -6.51024477874867        2.15586145694751        0.20371926895090
C           -6.96545772148429        0.84821906157580        0.13560383912121
N           -6.26873948423184       -0.33365837497930       -0.03032906264478
C           -4.87974017183658       -0.46157829417669       -0.12559276116447
C           -4.04934940009852        0.16813723018474        0.79880905136631
C           -2.67828352930737        0.05325759001663        0.69205978326409
C           -2.10285270838501       -0.70462092769691       -0.32592719054096
C           -0.64287249932022       -0.85978679242137       -0.42462248152543
C           -0.10882340903564       -2.14512364518741       -0.42451678100757
C            1.25261769309037       -2.35623560847991       -0.46616175747778
C            2.13824097549907       -1.27838810615643       -0.51204818517530
C            3.54918022670276       -1.46129998317418       -0.55550658456973
C            4.39629459093918       -0.40720865893301       -0.59913153137777
C            3.91113841317944        0.93430560406419       -0.60331685264820
C            4.77075068900715        2.04661896253723       -0.64998649045809
C            6.23372302358941        1.89978267674032       -0.59500396547088
C            6.84861317602053        1.22777621462896        0.45937410229383
C            8.22194828393279        1.10086360440309        0.51241870860564
C            9.01476994377922        1.63879779585372       -0.49975114773554
C           10.46113306901469        1.52339168926761       -0.50003060410446
N           11.27881696934251        2.44456957346328       -0.94170784401723
N           12.52939751221973        2.02009877815133       -0.76990685147462
C           12.49649920922236        0.83076845861144       -0.22475764987740
C           13.67444346797774        0.03662635420088        0.07582805989397
C           14.84337054735155        0.70375983859265        0.44080902853956
C           15.99210126065947       -0.00971007671028        0.72090334352017
C           15.99067141523022       -1.39304480375845        0.63543657745875
C           14.83849382662528       -2.05882584630373        0.25227622283637
C           13.68411434014108       -1.35239722309515       -0.03072647903884
N           11.18768849342013        0.45519124361187       -0.02470911504685
C           10.69927209743311       -0.73672649903311        0.53695869939375
C           11.11670406666972       -1.12593859915816        1.80505714858057
C           10.62813920169950       -2.29735122909136        2.35333435599618
C            9.72405150133383       -3.07449317236238        1.64781142272075
C            9.30921136063329       -2.68237052783439        0.38552312455145
C            9.79568182778315       -1.51682559828949       -0.17672964130855
C            8.40621043524987        2.34569961959943       -1.53661797489012
C            7.03428251301084        2.47545777276747       -1.57997893462748
C            4.23488329714501        3.32786217702003       -0.74419963057078
C            2.87245301406592        3.53579801329624       -0.75581568587330
C            1.98790602213803        2.45893101999383       -0.67623705343609
C            0.57603942991036        2.63947116517366       -0.68921943645133
C           -0.27015982890407        1.58683797984889       -0.60932555734151
C            0.21694724708189        0.25000916838951       -0.50890336807085
C            1.61965245092276        0.03932166686028       -0.54025997308575
C            2.50768742106186        1.14325565208884       -0.60486153918236
C           -2.94005831054441       -1.35041988145828       -1.23213467415366
C           -4.31136658506082       -1.22208616515307       -1.14471615796463
H           -9.60805297083387       -5.36311271191326       -1.62286045785910
H          -10.59934763873149       -4.09968891344828       -2.34762103773110
H          -11.36437395402003       -5.49342926121560       -1.57804482668144
H          -12.72306622562870       -4.09327689187544       -0.11958846523096
H          -12.02714418363495       -2.81708588707532        0.87236705477357
H          -12.08262294500657       -2.64696012102360       -0.89150987568220
H           -9.52388427206497       -5.60121411376554        0.92167908468570
H          -10.44902857449460       -4.49347789818512        1.93198730488879
H          -11.28018995029836       -5.72525242545715        0.97684778531218
H           -7.94306466131178       -4.61292989113276       -0.31364794335244
H           -5.99713567855196       -3.15758298539958       -0.25873334385492
H          -10.57463014181200       -1.25636699274824        0.09832927823915
H          -10.31634249323459        1.36470329173261        0.34405358326944
H          -10.28791497385419        5.89457153035598       -0.50628456787720
H           -8.58987617511247        5.44968485204497       -0.65360958933236
H           -9.81367710079484        4.53941346384808       -1.53531855850505
H          -10.11532040473552        5.66077200555441        2.04314894702569
H           -9.53588670521041        4.14362593458924        2.73776021807981
H           -8.41974170617826        5.20880422192815        1.88694697148584
H          -11.53784808720246        3.17187145791107       -0.27857205365418
H          -11.41867200733763        3.00015863114890        1.48201717178840
H          -11.86813385602843        4.54583948618427        0.77023921170820
H           -7.08401060918475        4.17713640552199        0.40268375512556
H           -5.45847348546586        2.39050482206791        0.13559062348795
H           -4.48688262101601        0.73220056275026        1.60886005468005
H           -2.04118439352183        0.53222057191762        1.42165035741526
H           -0.78256366670718       -2.98848505512921       -0.36785910053033
H            1.64594162830649       -3.36277352350541       -0.45586759700427
H            3.92998869582052       -2.47312522657276       -0.56040980772101
H            5.46283169477743       -0.56895356963304       -0.65069921241775
H            6.24202871263866        0.82033850329965        1.25545480922208
H            8.67569254335584        0.59914321093991        1.35457300338989
H           14.82727475301645        1.78097476244861        0.49536366519294
H           16.89279710530714        0.51305279493824        1.00664759639241
H           16.88819763528013       -1.95096501597680        0.85780190844290
H           14.83825773753583       -3.13568809467982        0.16735377874735
H           12.79986563214096       -1.88260380171573       -0.35292827380473
H           11.81911218193463       -0.51093694008213        2.34815299124907
H           10.95241568480596       -2.60073956517823        3.33722681044767
H            9.34286354770024       -3.98625677252821        2.08185970505774
H            8.60638499948435       -3.28763467028409       -0.16683154093383
H            9.48136444231548       -1.20366749059065       -1.16155877359093
H            9.03070638904391        2.78338609830565       -2.29958059355293
H            6.56821809367818        3.01020058917059       -2.39474785691613
H            4.90880737535008        4.17171536861318       -0.78579199022624
H            2.47765523661113        4.53956323915891       -0.82059300707832
H            0.19361232630415        3.64699211217310       -0.77333176888436
H           -1.33790958318444        1.74392306395498       -0.64150724605877
H           -2.50552905117032       -1.93516534263689       -2.03003896531545
H           -4.95060155467862       -1.69583291277701       -1.87450833601996
