116
 energy: -170.006983759465 gnorm: 0.000086340545 xtb: 6.7.1 (edcfbbe)
C          -11.58807633770397       -4.94653188910951       -0.82204992318934
C          -11.45032252144075       -4.15576428099908        0.48670831705523
C          -12.80067804317911       -3.50010940701509        0.78863832111189
C          -11.11660154569902       -5.11234905798945        1.64029983996753
C          -10.32712696439036       -3.14001047858562        0.34021379532345
C           -9.03426224779559       -3.59770211636850        0.05311748161984
C           -7.95557266818961       -2.75112822067759       -0.10287185356802
C           -8.17429707639669       -1.38764869300579        0.02233957594250
C           -9.46023616666400       -0.90300118726476        0.34134478654345
C          -10.52729725283208       -1.77705945962368        0.49340786935417
C           -9.33949883366405        0.52481445147296        0.46158932801727
C          -10.25486367928792        1.53092139157570        0.73664877855736
C           -9.83711706587597        2.85227578782410        0.76314248786284
C          -10.78190270323806        4.00547349482138        1.06684859116266
C          -10.82794641296974        4.95102527389613       -0.14182416108082
C          -10.27092240018691        4.76250533255883        2.30097898148735
C          -12.20989956244355        3.53521833685126        1.35702536263090
C           -8.49260425246426        3.13414424570484        0.48691425656682
C           -7.56178878955160        2.15373786498519        0.20965611279791
C           -7.98480951529827        0.83328067932939        0.21738743734909
N           -7.28764521712738       -0.32982261663885       -0.05030022065601
C           -5.92478452831089       -0.42009045720878       -0.33146048030228
C           -4.99330722669815        0.25694208783870        0.45876990489328
C           -3.65025028775447        0.17617388048240        0.17561721080786
C           -3.17701042043965       -0.59174686141277       -0.90004269383311
C           -1.76073384976504       -0.71507034071936       -1.17181944197542
C           -1.23099951181709       -1.97500252472163       -1.48950864927249
C            0.11417543650107       -2.18838139258910       -1.58878529543452
C            1.04164380567224       -1.12300970356471       -1.37999812079638
C            2.41773985641786       -1.31605406299781       -1.46148726107870
C            3.30295521115552       -0.26891853156189       -1.24742343301309
C            2.84431021802883        1.01616117370724       -0.94983074370296
C            3.74162408065036        2.11902717451524       -0.70939049215622
C            5.15635538451532        1.91574458517405       -0.47583245801854
C            5.61432301363980        0.86802725730611        0.33741256426958
C            6.95620946786307        0.67913919213014        0.57104286388578
C            7.90238661428460        1.52653655178740       -0.01233303590251
C            9.32434366485206        1.36014070178026        0.18714575962843
N           10.18884115740005        2.34454519744944        0.23966348770085
N           11.39609066576246        1.83787469105967        0.47432473678991
C           11.29530029211392        0.53533799229561        0.56360684214184
C           12.41838590806222       -0.35753357051708        0.78450831044645
C           13.48028403531083        0.10062741500538        1.56415292699730
C           14.57452712742781       -0.70974546026069        1.79374055734090
C           14.62610297436904       -1.98182009037494        1.24579445002471
C           13.58497509767881       -2.43281115727162        0.45186956114785
C           12.48596805093512       -1.62777978870134        0.21593359778418
N            9.98130621110684        0.16542386452922        0.38769684844350
C            9.43355427297168       -1.12826301638446        0.39148109368210
C            9.61950763177447       -1.95746106724400        1.49232146052033
C            9.07449165203040       -3.22809638520931        1.48783286345094
C            8.34308968787980       -3.67051617542076        0.39771096326865
C            8.15899141670358       -2.84113155482321       -0.69665637741173
C            8.70452812354385       -1.57108277028102       -0.70740566545619
C            7.45496568094600        2.60399479749843       -0.78353447016525
C            6.11247896546183        2.79659880415778       -1.00534698383041
C            3.21418289005843        3.41753473723687       -0.64924030703167
C            1.86968315109517        3.65317127846805       -0.70113749218300
C            0.94172269063832        2.57561505662370       -0.82869305286010
C           -0.43335756046934        2.78725981942761       -0.87262416822953
C           -1.31939900384389        1.72516345055925       -0.98780043940639
C           -0.86241449658504        0.40819979930458       -1.06820733757490
C            0.53866629363278        0.17907391719507       -1.12566200951353
C            1.44370705546858        1.25491908144915       -0.95855385253369
C           -4.12347272134772       -1.28554211232241       -1.66924547011713
C           -5.46931709018293       -1.19401002858102       -1.40037921408736
H          -10.67691530719212       -5.48968411579321       -1.05645055607780
H          -11.80433556719287       -4.27138784026385       -1.64751108871285
H          -12.40094730675887       -5.66529738840768       -0.74177295847164
H          -13.56610367981755       -4.26909327769748        0.87230457369606
H          -12.76972859631397       -2.95495197023766        1.72916495440726
H          -13.09286762360574       -2.82117466128853       -0.00917892502886
H          -10.19833170189363       -5.66049971039002        1.44910771013001
H          -10.99363002761007       -4.55481274823215        2.56657620719054
H          -11.92103064370548       -5.83253737817173        1.77464502314310
H           -8.85883816129777       -4.65785239557803       -0.04781472973623
H           -6.97141341648443       -3.14808893825863       -0.30078875845690
H          -11.49539730360393       -1.37175940833084        0.73574543142614
H          -11.28078788355570        1.25879616263753        0.92005276579324
H          -11.51687151181577        5.77103122112568        0.04994773253806
H           -9.84940721965809        5.37225581412806       -0.35448456101121
H          -11.16696670718493        4.41434537972176       -1.02556780626339
H          -10.94590705692622        5.58019932081481        2.54505051597376
H          -10.21673809258591        4.09237640693172        3.15654525921653
H           -9.28173480829116        5.17829107660214        2.13132642566605
H          -12.63549600564594        3.02206289177938        0.49777478595989
H          -12.23583112581611        2.87230426261636        2.21884320996666
H          -12.83722441509092        4.39671978186951        1.57718695780015
H           -8.15732062896791        4.16000979558764        0.48305449082282
H           -6.54000947016285        2.41673759942688       -0.01865576868927
H           -5.33524969483863        0.81842671785187        1.31548185074240
H           -2.94000420301237        0.66615420282337        0.82502542677512
H           -1.91050246718362       -2.80900230108555       -1.59449166359738
H            0.50198414932707       -3.17388143373294       -1.80025892842982
H            2.79957649133942       -2.29930145176094       -1.69689424009464
H            4.36300727210431       -0.44987820423086       -1.34088207657561
H            4.89501276790179        0.22800499350422        0.82722877768381
H            7.27049135862818       -0.11400418303105        1.23369139305533
H           13.42516723570709        1.09548702375479        1.97753453478379
H           15.39100647510968       -0.35010550554195        2.40226466111680
H           15.47992100343653       -2.61716476875956        1.42928497968291
H           13.62945894609205       -3.41670772546155        0.00814736602753
H           11.69309436982192       -1.98268606119582       -0.42601994831594
H           10.18832067608585       -1.60170805765408        2.33875096436750
H            9.21880816909660       -3.87256237706385        2.34174903268146
H            7.91662065233419       -4.66208191462901        0.40091070995429
H            7.59134869273238       -3.18459745720439       -1.54829790032924
H            8.56928273267059       -0.91719856025043       -1.55643343390429
H            8.18924186403527        3.27195094632848       -1.20616537985737
H            5.78795935176433        3.61391313683573       -1.63212324289272
H            3.89385388132545        4.24348058620302       -0.49559319264960
H            1.48268278594262        4.65809745141995       -0.61996535302761
H           -0.81394576661163        3.79716171872979       -0.81738546137151
H           -2.37785491767141        1.92831609407731       -1.04588448618695
H           -3.79167993488034       -1.86341359631303       -2.51900281885657
H           -6.18570122238085       -1.69695622715643       -2.03278840310971
