  82
       -127.52873909
 C          9.1872236333       -0.7256628712        1.8382420418
 C          8.8583754693       -0.3458768163        0.3879247823
 C          9.3266545625        1.0886895543        0.1057458092
 C          9.6267090577       -1.2910002522       -0.5392076178
 C          7.3537826581       -0.4196960103        0.1835390278
 C          6.5174738275        0.3668673848        0.9728268878
 C          5.1459429217        0.3399834133        0.8228888650
 C          4.5727531126       -0.4898467927       -0.1283157333
 N          3.1554832334       -0.5242830836       -0.2882056888
 C          2.6483233242       -0.0964604390       -1.5096532447
 O          3.4003391992        0.3209713414       -2.3857827984
 C          1.2039913600       -0.1396014163       -1.6560351557
 C          0.6188484347        0.2730692046       -2.8716628645
 C         -0.7428981633        0.2253909407       -3.0294147079
 C         -1.5680644595       -0.2011033399       -1.9868263051
 C         -1.0238252185       -0.5881908413       -0.7558697019
 C         -1.8087233406       -1.0264122878        0.3435601293
 N         -3.2149215937       -0.9659344060        0.2739386562
 C         -3.9472096587       -2.1374632431        0.2930715664
 C         -3.2762901396       -3.3685106250        0.3503234942
 C         -3.9761600671       -4.5519436300        0.4044882572
 C         -5.3623204326       -4.5348150650        0.3754640895
 C         -6.0262111350       -3.3274540400        0.2592171695
 C         -5.3475506567       -2.1170279858        0.2093886124
 C         -6.1231050379       -0.8324714697        0.0145577209
 C         -6.8533554581       -0.9160968972       -1.3405549509
 C         -7.1400608705       -0.6838740701        1.1631752297
 C         -5.2224570493        0.3849151749        0.0128538429
 C         -5.7989732051        1.6465418178       -0.1246057726
 C         -5.0680894186        2.8161516967       -0.0773951848
 C         -3.7023622188        2.7206722921        0.1539135929
 C         -3.0979036229        1.4588222166        0.2906019773
 O         -1.7712263746        1.5770740805        0.5440042782
 C         -1.4885803206        2.9046396475        0.5610425846
 C         -0.2463547014        3.4783684539        0.7697743154
 C         -0.1802841723        4.8590150298        0.7371164517
 C         -1.3135617155        5.6378045644        0.5060304470
 C         -2.5515621699        5.0630420435        0.2968218986
 C         -2.6414458633        3.6768840311        0.3226622608
 C         -3.8316488607        0.2625313913        0.1804803413
 C         -1.2038842172       -1.4868500538        1.5302255050
 C          0.1541631544       -1.4768114998        1.6686421925
 C          0.9740294227       -1.0092741441        0.6120205120
 C          0.3906254662       -0.5752475627       -0.5947451565
 C          2.4106788223       -0.9926824905        0.7906889746
 O          2.9689261467       -1.3823026451        1.8139628901
 C          5.3849745166       -1.2821632559       -0.9214962425
 C          6.7589709927       -1.2407318403       -0.7664844524
 H          8.8242795831       -1.7280127446        2.0545976922
 H         10.2636110848       -0.7050822726        1.9961588849
 H          8.7265758541       -0.0386120844        2.5418912840
 H         10.4046072862        1.1629196338        0.2331308372
 H          8.8531949818        1.7977577701        0.7785186844
 H          9.0778012515        1.3694497221       -0.9153368023
 H          9.3402652223       -2.3253852012       -0.3653647389
 H          9.4516302136       -1.0417801288       -1.5828172367
 H         10.6937574353       -1.1999342714       -0.3460371601
 H          6.9378100227        1.0214318395        1.7204413063
 H          4.5156044580        0.9564405873        1.4452199565
 H          1.2732459481        0.6176435522       -3.6561449902
 H         -1.1924028341        0.5337018193       -3.9618609126
 H         -2.6381817996       -0.2198532562       -2.1358030998
 H         -2.1986868231       -3.3838043107        0.3399903203
 H         -3.4414115637       -5.4874675718        0.4567607215
 H         -5.9217378428       -5.4561717359        0.4183811631
 H         -7.1037119953       -3.3357838859        0.2002448052
 H         -6.1298941689       -1.0267779874       -2.1460612502
 H         -7.5256069275       -1.7688862406       -1.3650201901
 H         -7.4354571707       -0.0175082384       -1.5232642456
 H         -7.8138627091       -1.5348618433        1.1960495459
 H         -6.6166697103       -0.6226015426        2.1153321275
 H         -7.7374340007        0.2147387416        1.0421633905
 H         -6.8647069708        1.7190465212       -0.2741237467
 H         -5.5434637167        3.7758690858       -0.1989700773
 H          0.6223947728        2.8642418652        0.9441402934
 H          0.7709835013        5.3445239803        0.8922864867
 H         -1.2162170531        6.7126870142        0.4888389742
 H         -3.4261627880        5.6682747070        0.1151296009
 H         -1.8412514166       -1.7936287501        2.3474113914
 H          0.6376092646       -1.7940634596        2.5783294572
 H          4.9411586163       -1.9272117484       -1.6643767524
 H          7.3588867407       -1.8697943244       -1.4024681620
