82
 energy: -127.588136055635 gnorm: 0.000063516446 xtb: 6.7.1 (edcfbbe)
C            9.47204765121683        0.38528730535609       -0.79508729056679
C            8.86126018995539       -0.37540710054694        0.39111799434974
C            9.52604869339587       -1.75300903041426        0.46833807166345
C            9.15660963603547        0.37334136897226        1.69935095911109
C            7.35361473310016       -0.46171218520091        0.20207377381177
C            6.60546934579744        0.71025396564970        0.11360791743419
C            5.23454883695242        0.68434459184779       -0.04899308736138
C            4.57376635411023       -0.53021427170222       -0.13528789426015
N            3.15184196428669       -0.56424750832301       -0.30005972766965
C            2.65389994823346       -0.21226635492606       -1.54702506063010
O            3.42899758178387        0.10003979646084       -2.45613059162073
C            1.21446495304152       -0.23585652641760       -1.69186238739233
C            0.63456059498208        0.11122516155832       -2.92737461545462
C           -0.73100102683243        0.08047640985704       -3.08147979063235
C           -1.55913449243502       -0.27309161629193       -2.02000740165867
C           -1.01937514563144       -0.60129344458403       -0.76810542072089
C           -1.81105251533471       -0.96581540146826        0.35333665382269
N           -3.22112138421549       -0.90386141877679        0.27217411315812
C           -3.94939785768518       -2.07547247412359        0.30149784202842
C           -3.27369354573764       -3.30637400808567        0.36050719432327
C           -3.97211833474794       -4.48940309696608        0.42221942137889
C           -5.36093279672774       -4.47245169334980        0.40438925840083
C           -6.03008490982624       -3.26712626758463        0.29512438303966
C           -5.35374926234096       -2.05557337830255        0.23316534205657
C           -6.13017766550134       -0.77213346733204        0.05629523152033
C           -6.91435242389772       -0.86334614003198       -1.26958606044300
C           -7.10728615304304       -0.61274237634664        1.24017941278025
C           -5.23053607075022        0.44270721538437        0.01853164160887
C           -5.80770300910593        1.70209392814362       -0.12433742399194
C           -5.07410418909335        2.87214304465210       -0.09985631328936
C           -3.70372992568336        2.77991290106227        0.10889523725517
C           -3.09405044900719        1.52064607885090        0.24539933360857
O           -1.76135319562617        1.64432741229076        0.47405807166505
C           -1.48443750360272        2.97524823562263        0.48585265926711
C           -0.24501538752286        3.55815971707468        0.68947207360448
C           -0.18862470495541        4.93960203791698        0.65647502008326
C           -1.32820151016497        5.71126146579282        0.43009683843966
C           -2.56377685072495        5.12794217235990        0.22913992491442
C           -2.64423479564877        3.74121025860434        0.25761762050927
C           -3.83183764978676        0.32199159540445        0.16754917118063
C           -1.21891538906026       -1.35512096661825        1.56438147577126
C            0.14259591164372       -1.35068194533750        1.70733686146281
C            0.97025038579138       -0.96836251713222        0.62845235731356
C            0.39525190221857       -0.59996322240906       -0.60605113549495
C            2.40212741737373       -0.94603682276340        0.80638902910640
O            2.96717278738857       -1.23213156883472        1.86802856826542
C            5.29618568193120       -1.70709397326857       -0.05675908006203
C            6.66922644950623       -1.66806146651088        0.11449291055787
H            9.08391488274405        1.39786177504137       -0.85906778641361
H           10.55325732153405        0.43901960195036       -0.68712412142359
H            9.24100662475481       -0.12607301664133       -1.72747385659652
H           10.59849460886438       -1.62928498610201        0.60474217926409
H            9.36575070433915       -2.31552846189665       -0.44847837036577
H            9.14296480947716       -2.32461379286379        1.31045159820856
H            8.77055575572150        1.38833450270699        1.67039220179131
H            8.69417401262464       -0.14245784080564        2.53861364356889
H           10.23019889870647        0.42011578230450        1.86880089988450
H            7.09277400215955        1.67145250905762        0.17510049260193
H            4.67138338673551        1.60453711621569       -0.11565056354237
H            1.29453610832345        0.39446450929484       -3.73315570104337
H           -1.17205562315689        0.34334923547519       -4.03190174544599
H           -2.62852671179625       -0.28713108108469       -2.16894314041602
H           -2.19595472493011       -3.31906252126864        0.34696061935280
H           -3.43642346350507       -5.42452973516552        0.47309713591867
H           -5.91665853039952       -5.39584782662857        0.45411777121050
H           -7.10721906704858       -3.27751654646521        0.25196095923503
H           -7.49017706230908        0.04063255458135       -1.43895016651204
H           -6.22597587096591       -0.99622350730260       -2.10141923573932
H           -7.59799759547497       -1.70595338170464       -1.25139578093942
H           -7.77311383740930       -1.46726062903216        1.30348893482549
H           -6.55168418361632       -0.53724427860954        2.17255618429272
H           -7.71034986269007        0.28181116668011        1.12488142675069
H           -6.87485509352096        1.77419425374958       -0.25446736018171
H           -5.55021085479370        3.83144204142714       -0.21947489702959
H            0.63030691084930        2.95283130049111        0.86419064965982
H            0.76043758487204        5.43043043498005        0.80968824308732
H           -1.23689994562821        6.78666296733111        0.41294481671165
H           -3.44266217223493        5.72818114315248        0.05469156987727
H           -1.85672945287573       -1.61035386310163        2.39811056553365
H            0.61768639185401       -1.61763508530125        2.63839748750725
H            4.78067633048998       -2.65493058600992       -0.12191286405879
H            7.19581882436586       -2.60627623910037        0.17505183372875
