82
 energy: -127.647817031704 gnorm: 0.000058128829 xtb: 6.7.1 (edcfbbe)
C            9.25254148620451        1.00617019703521       -0.33022267612958
C            8.64109213722387       -0.25071204976188        0.29601470586084
C            9.26917596345247       -1.47798640880087       -0.38134241328015
C            8.97666887523951       -0.25248408491314        1.79488591925550
C            7.13039458356756       -0.31356254490290        0.12787015246309
C            6.40079957654169        0.67430396623100       -0.52321536198083
C            5.02602014749877        0.58362821403085       -0.65805226509369
C            4.35409622927261       -0.50982095956520       -0.14366383677901
N            2.92714705427775       -0.61180257561300       -0.28939439182781
C            2.45409586846423       -0.96011295390528       -1.54509884242908
O            3.22910720139368       -1.17759833771663       -2.45928398022721
C            0.99416570138864       -1.04707299053497       -1.68687335379876
C            0.44417023864680       -1.36524798713084       -2.91332195165540
C           -0.94148505846076       -1.44123062829844       -3.06687989305167
C           -1.77225420269159       -1.21375336524621       -1.99922476245335
C           -1.24676396988985       -0.89910591748104       -0.72935980636974
C           -2.06809860608715       -0.63990964340884        0.40112357539685
N           -3.47476054651752       -0.70517072321003        0.28089875340847
C           -4.10647899501699       -1.94538996263896        0.24952535728323
C           -3.33731511916226       -3.11172117698231        0.27041674257308
C           -3.93376311885714       -4.35446455188147        0.22202830120560
C           -5.31254617186986       -4.45297885729646        0.16371532233850
C           -6.07455794124963       -3.29967478328804        0.17735712812414
C           -5.50075004982849       -2.03508250386295        0.22568547329242
C           -6.39793129791207       -0.81196450395081        0.28048297317871
C           -7.29186229092542       -0.79730998022165       -0.97440337811115
C           -7.26374130525770       -0.90091700574264        1.55138103196551
C           -5.60092204019331        0.48000417690685        0.31785989455321
C           -6.29189982066640        1.69378606249966        0.34427082860903
C           -5.66234678687454        2.91878132884201        0.32677091457089
C           -4.27569679031344        2.93086508444276        0.25515630177989
C           -3.56510923300434        1.72108329321643        0.23703369185078
O           -2.21297832991697        1.94220736336446        0.13638235634986
C           -2.04768273397499        3.29324956074608        0.09341174771485
C           -0.84553573592567        3.97120703302689       -0.00383183015798
C           -0.90045886003521        5.35391826269744       -0.02756453908977
C           -2.11354576589050        6.03511999778257        0.04237448148578
C           -3.31233641375210        5.35552847249612        0.13898742277798
C           -3.28085505560521        3.96718639065154        0.16660865280893
C           -4.20285862263777        0.47624583168274        0.29732872342996
C           -1.50273607890172       -0.30562630763140        1.61373673029599
C           -0.12045178651076       -0.21657090871145        1.75390999497321
C            0.71063052608730       -0.46227960873316        0.67762193059779
C            0.15964001192826       -0.80405148877148       -0.57544078028591
C            2.16436613572665       -0.34806461331272        0.83909334569579
O            2.70078678696830       -0.03392309989794        1.88700209666020
C            5.05733692827959       -1.50833042168418        0.50886431625849
C            6.42795473987170       -1.40211956245757        0.64130710030677
H            8.85772573234363        1.90669930285239        0.13435198032834
H           10.33018991850484        0.99596301680460       -0.18038211051508
H            9.06264967646041        1.04179043965220       -1.40045085185548
H           10.35300334029651       -1.43523516075168       -0.29852484528958
H            9.00303605949031       -1.50220285774658       -1.43623862952086
H            8.92880287550852       -2.40227712852123        0.07671281455912
H            8.50952762882599        0.59894249141320        2.28581690004370
H            8.62506123104803       -1.15888818485706        2.27946764629701
H           10.05327155459792       -0.18557432691714        1.93572933957398
H            6.89179701320875        1.53846235424880       -0.93860427352655
H            4.47501752644878        1.36074737143008       -1.16819443456648
H            1.10817172124845       -1.54794114983624       -3.74510055724825
H           -1.35527000310993       -1.68027432086049       -4.03431158199749
H           -2.84305276330467       -1.27569747174858       -2.12148507151013
H           -2.26208570672718       -3.04332675641628        0.32965460708770
H           -3.31901657256089       -5.24215040740870        0.23430939909019
H           -5.79226110561624       -5.41898262352993        0.12156457273105
H           -7.14919560873536       -3.39350229863269        0.15354916783163
H           -7.97378636474670        0.04751919124630       -0.95675818111167
H           -6.67606567739906       -0.72232084444289       -1.86887927312655
H           -7.88114731437711       -1.70718333601368       -1.03903844166568
H           -7.85988054246416       -1.80878006072948        1.54939421906794
H           -6.62779382920826       -0.90991804068249        2.43478760951336
H           -7.93698786614387       -0.05163693777352        1.62208933727419
H           -7.36950465552018        1.67631861317060        0.37760583144176
H           -6.22367639817425        3.83863734258206        0.35197377452506
H            0.09048105044798        3.43723325756486       -0.05658847026261
H            0.01869450740360        5.91564583603548       -0.10083414923783
H           -2.11200378258147        7.11470810017186        0.02079736623483
H           -4.25136762208380        5.88424997147330        0.19364305831526
H           -2.14276730165844       -0.10665937480031        2.46047366756446
H            0.32320594198767        0.04205332458128        2.70383763035142
H            4.53040840881226       -2.36082757554756        0.91267283139602
H            6.95235146368264       -2.19283548413096        1.15502321383691
