  45
        -91.22018346
 C          0.5681366252        3.6726850535       -1.1286049556
 C         -0.2962729525        2.8544711997       -0.2445137758
 S         -1.8762217520        3.4519347944        0.0984668662
 C         -2.2759153244        2.0398369099        1.0469081821
 C         -3.4562569506        1.8318878174        1.7361361437
 C         -3.5625931075        0.7000879219        2.5248395555
 C         -2.4840686295       -0.1663297495        2.6516826889
 C         -1.3114650079        0.0482700665        1.9525887462
 C         -1.2070431652        1.1334683959        1.0862640294
 C         -0.0776466690        1.5613888822        0.2728636319
 C          0.9992873420        0.7219575439       -0.0391723645
 C          0.9903658185       -0.7272921878        0.0641485356
 C         -0.0908732786       -1.5579759797       -0.2526284184
 C         -0.3391197422       -2.8348435630        0.2891610669
 C          0.4906628371       -3.6364138613        1.2207706640
 S         -1.9114239850       -3.4282041657       -0.0947769865
 C         -2.2717076670       -2.0281033537       -1.0767645297
 C         -3.4323473178       -1.8181651837       -1.7981890051
 C         -3.5110276825       -0.6913261721       -2.5972112933
 C         -2.4253976894        0.1695496256       -2.7005233343
 C         -1.2719749793       -0.0474707660       -1.9709260796
 C         -1.1955971748       -1.1297747506       -1.0981408952
 C          2.3602362734       -1.1801580372        0.4378359835
 F          2.7397035928       -2.3656327105       -0.0961686799
 F          2.5437872166       -1.3298009893        1.7941324921
 C          3.3032624127       -0.0433609035       -0.0611212565
 F          4.2456948999        0.2719818398        0.8497761551
 F          3.9617994901       -0.4447680523       -1.1699192094
 C          2.3807708765        1.1758301975       -0.3717057423
 F          2.7932136024        2.2612664785        0.3339823854
 F          2.5602159999        1.5286915788       -1.6868300147
 H          0.0396863804        4.5743597433       -1.4296075623
 H          0.8513245132        3.1198543125       -2.0250393772
 H          1.4867166729        3.9654353277       -0.6201737386
 H         -4.2620429476        2.5455898558        1.6664191822
 H         -4.4753386729        0.5088734497        3.0674529026
 H         -2.5567830224       -1.0161372831        3.3131244267
 H         -0.4702300789       -0.6084496015        2.0971960074
 H          1.3243754713       -4.1065919374        0.6966162428
 H         -0.1123574042       -4.4211594707        1.6722081316
 H          0.9093941445       -3.0158283039        2.0121081708
 H         -4.2451137935       -2.5249830703       -1.7425610790
 H         -4.4082673371       -0.4988500812       -3.1648642143
 H         -2.4776693280        1.0171041827       -3.3667848712
 H         -0.4244583166        0.6064122361       -2.0932830468
  45
        -91.22017643
 C          0.5392250872        3.6252217215       -1.2261696536
 C         -0.3054045903        2.8333898179       -0.2998111065
 S         -1.8761015376        3.4405836480        0.0682904763
 C         -2.2582990922        2.0442288548        1.0472989929
 C         -3.4284850640        1.8437863603        1.7557798341
 C         -3.5251707138        0.7178424377        2.5539686572
 C         -2.4477932746       -0.1516148678        2.6695981775
 C         -1.2846765699        0.0558378100        1.9527219560
 C         -1.1899590305        1.1372096570        1.0806082545
 C         -0.0734564287        1.5551555196        0.2455037654
 C          1.0024303018        0.7141899565       -0.0626314892
 C          0.9965486664       -0.7353467332        0.0388396552
 C         -0.0877412630       -1.5628308675       -0.2781655493
 C         -0.3229615319       -2.8550659624        0.2350276274
 C          0.5341348036       -3.6926492118        1.1082675742
 S         -1.9145296438       -3.4257810016       -0.1001463961
 C         -2.2980769423       -2.0040689846       -1.0408751932
 C         -3.4811221046       -1.7720711584       -1.7175203524
 C         -3.5744337585       -0.6357013067       -2.5011627268
 C         -2.4804137241        0.2092941612       -2.6385078393
 C         -1.3050073086       -0.0295365064       -1.9521856274
 C         -1.2137273463       -1.1168133523       -1.0870769961
 C          2.3702585535       -1.2014083804        0.3866350745
 F          2.7811478868       -2.2925049189       -0.3106106160
 F          2.5313318400       -1.5510792599        1.7051340946
 C          3.3074246245        0.0083689636        0.0832168336
 F          3.9637368561        0.4021284862        1.1958443188
 F          4.2517162126       -0.3170128830       -0.8222184344
 C          2.3798473894        1.1550393954       -0.4221076847
 F          2.7639225967        2.3362258809        0.1180955161
 F          2.5787692111        1.3056660460       -1.7760947900
 H          1.3705962709        4.0917515453       -0.6955045032
 H         -0.0535991785        4.4120330466       -1.6872441833
 H          0.9616433132        2.9983739636       -2.0101994337
 H         -4.2346539758        2.5574835835        1.6915845619
 H         -4.4304672504        0.5321151302        3.1108084558
 H         -2.5146769633       -0.9990708119        3.3346704793
 H         -0.4440019902       -0.6046551414        2.0847481592
 H          1.4426284609       -4.0000232466        0.5903916825
 H         -0.0079513469       -4.5857202704        1.4103666794
 H          0.8355353934       -3.1493905065        2.0044372391
 H         -4.2993304954       -2.4707264609       -1.6417227900
 H         -4.4891149776       -0.4252915359       -3.0332333181
 H         -2.5433002451        1.0615209773       -3.2978672340
 H         -0.4523683671        0.6104795638       -2.1048122613
  45
        -91.22014614
 C          0.5110464188        3.6249824860       -1.2158126757
 C         -0.3215888971        2.8398003952       -0.2729677816
 S         -1.8775630525        3.4601160357        0.1328068286
 C         -2.2477233147        2.0659960739        1.1198833882
 C         -3.3969932862        1.8806601673        1.8657766160
 C         -3.4821494894        0.7568772142        2.6684946702
 C         -2.4139069823       -0.1275546062        2.7483387582
 C         -1.2717196440        0.0648639747        1.9945254935
 C         -1.1893374236        1.1464134827        1.1212937243
 C         -0.0883095576        1.5583515671        0.2634181221
 C          0.9842225134        0.7171511886       -0.0572051806
 C          0.9767974954       -0.7309590942        0.0543729074
 C         -0.1032597498       -1.5602814726       -0.2719852173
 C         -0.3512272331       -2.8418959971        0.2580850908
 C          0.4733921349       -3.6437177298        1.1938342111
 S         -1.9163785611       -3.4398257127       -0.1459606157
 C         -2.2700242586       -2.0379156234       -1.1279801274
 C         -3.4180357871       -1.8351586531       -1.8712821981
 C         -3.4887613524       -0.7090776044       -2.6721897656
 C         -2.4076716627        0.1595002677       -2.7535810062
 C         -1.2673413551       -0.0497601777       -2.0014270221
 C         -1.1994001014       -1.1326223256       -1.1286789893
 C          2.3469795134       -1.1901197637        0.4201300051
 F          2.7429181657       -2.3314372183       -0.1972648980
 F          2.5135378813       -1.4435334210        1.7613999853
 C          3.2916185313       -0.0126950182        0.0231341562
 F          4.0706173744        0.3646016783        1.0584328361
 F          4.1275781738       -0.3833354449       -0.9686706386
 C          2.3609872881        1.1603176564       -0.4169722985
 F          2.7578170701        2.3145967175        0.1735778638
 F          2.5448515700        1.3751862256       -1.7632260036
 H          0.8571932021        3.0078704287       -2.0446684254
 H          1.3933081446        4.0287069846       -0.7174803716
 H         -0.0652718123        4.4564516278       -1.6151103356
 H         -4.1951181733        2.6052142274        1.8279944371
 H         -4.3702257707        0.5845693939        3.2563841722
 H         -2.4704543713       -0.9743241044        3.4152231242
 H         -0.4360076844       -0.6062710068        2.1004814108
 H          0.7997518399       -3.0450328450        2.0442723308
 H          1.3674999467       -4.0264495304        0.7003903102
 H         -0.1021420647       -4.4897029756        1.5625125343
 H         -4.2261040052       -2.5485195800       -1.8333014380
 H         -4.3754191388       -0.5233287505       -3.2582008482
 H         -2.4524296148        1.0067017670       -3.4208211292
 H         -0.4214894108        0.6081992535       -2.1096307006
  45
        -91.22013765
 C          0.5739618715        3.6559414243       -1.1673211448
 C         -0.2896704738        2.8450176449       -0.2755533295
 S         -1.8712326470        3.4428767655        0.0587078339
 C         -2.2749087034        2.0338729856        1.0098691434
 C         -3.4631351762        1.8218231205        1.6840845161
 C         -3.5765000272        0.6880764160        2.4687718629
 C         -2.4973274363       -0.1755907869        2.6081040973
 C         -1.3161568579        0.0436051971        1.9249418578
 C         -1.2040964469        1.1305671667        1.0617586147
 C         -0.0699832367        1.5572102127        0.2544164553
 C          1.0083652837        0.7170687767       -0.0494673453
 C          1.0020986813       -0.7331269233        0.0444176125
 C         -0.0814222805       -1.5629074097       -0.2673971872
 C         -0.3166258991       -2.8518041525        0.2545503439
 C          0.5413695245       -3.6870281801        1.1291317891
 S         -1.9087267711       -3.4242814911       -0.0755237523
 C         -2.2953746690       -2.0053176854       -1.0189516902
 C         -3.4832118731       -1.7720337672       -1.6868635112
 C         -3.5814355737       -0.6348724381       -2.4687184311
 C         -2.4879552388        0.2098080951       -2.6131091853
 C         -1.3075514102       -0.0303535065       -1.9356176250
 C         -1.2106397901       -1.1190346037       -1.0728857377
 C          2.3733103432       -1.1935492146        0.4067485402
 F          2.7710863323       -2.3314433996       -0.2146620986
 F          2.5387145724       -1.4505037509        1.7478192090
 C          3.3184164573       -0.0158974460        0.0159318159
 F          4.1192975468        0.3377738009        1.0425351403
 F          4.1332762279       -0.3754419219       -0.9976445653
 C          2.3880043075        1.1682599412       -0.3903322506
 F          2.7818647070        2.3036278721        0.2386354790
 F          2.5783844559        1.4250219717       -1.7279492529
 H          0.0143094393        4.5065191988       -1.5498207422
 H          0.9343771731        3.0671255808       -2.0106561338
 H          1.4470724111        4.0325763361       -0.6333510175
 H         -4.2702003148        2.5329629082        1.6045748351
 H         -4.4962139175        0.4924165845        2.9978018205
 H         -2.5771191603       -1.0279060800        3.2655197955
 H         -0.4755574411       -0.6123394455        2.0773048044
 H         -0.0298612631       -4.5309337741        1.5091253182
 H          0.9226792459       -3.1145016182        1.9742357908
 H          1.4008119955       -4.0745277697        0.5808992929
 H         -4.3017391403       -2.4695749264       -1.6045410068
 H         -4.5006026891       -0.4221957404       -2.9920856105
 H         -2.5560499230        1.0637778327       -3.2697096193
 H         -0.4559591795        0.6103367735       -2.0919824628
  45
        -91.21980737
 C          0.5195982498        3.6325761019       -1.2061242048
 C         -0.2983569717        2.8811389227       -0.2228651826
 S         -1.7777920303        3.5999986327        0.2886709221
 C         -2.1945755853        2.2047367486        1.2530835844
 C         -3.3135894299        2.0857019528        2.0559954631
 C         -3.4564922116        0.9375578528        2.8144383322
 C         -2.4717512882       -0.0414765931        2.7882822977
 C         -1.3553511102        0.0893197404        1.9836313711
 C         -1.2137102941        1.2054790986        1.1630746878
 C         -0.1174625731        1.5765969193        0.2801919965
 C          0.9346976641        0.7153441682       -0.0594498902
 C          0.9319025480       -0.7329986574        0.0558274488
 C         -0.1234983927       -1.5872785390       -0.2874861116
 C         -0.3330934946       -2.8820615228        0.2295300622
 C          0.4727718129       -3.6414858885        1.2164630316
 S         -1.8324234366       -3.5686425138       -0.2697730764
 C         -2.2139903994       -2.1769994094       -1.2549142447
 C         -3.3280653702       -2.0383796154       -2.0615005135
 C         -3.4334213648       -0.9010945378       -2.8424962179
 C         -2.4192871129        0.0480411855       -2.8340791097
 C         -1.3106113677       -0.0994420721       -2.0218513932
 C         -1.2068077051       -1.2035559893       -1.1798302150
 C          2.3044863069       -1.1827702711        0.4298623216
 F          2.6997919048       -2.3421066862       -0.1525238358
 F          2.4765816863       -1.3906910178        1.7781185426
 C          3.2471440006       -0.0222395221       -0.0116654763
 F          4.0946971975        0.3361929562        0.9745371952
 F          4.0143257506       -0.4091388235       -1.0526845328
 C          2.3156984901        1.1653523876       -0.4039787630
 F          2.7142505999        2.2931976077        0.2375496590
 F          2.5036592275        1.4368509212       -1.7379954808
 H          1.4496391847        3.9866657806       -0.7599813529
 H         -0.0353939134        4.4978463424       -1.5616509823
 H          0.7815417413        3.0086725853       -2.0603198543
 H         -4.0450163105        2.8777822702        2.0918944457
 H         -4.3237284708        0.8157501281        3.4447149179
 H         -2.5722109205       -0.9159460031        3.4129568109
 H         -0.5832922588       -0.6600075660        2.0128165201
 H          1.3782973913       -4.0437044323        0.7602913634
 H         -0.1087652077       -4.4747671123        1.6047812499
 H          0.7783107326       -3.0078291888        2.0486606779
 H         -4.0836211490       -2.8078737205       -2.0849123496
 H         -4.2946995258       -0.7657341135       -3.4781360812
 H         -2.4911172365        0.9110523870       -3.4783511243
 H         -0.5150934912        0.6252818235       -2.0592557951
  45
        -91.21923231
 C          0.3835957809        3.5876679633       -1.2609002660
 C         -0.3801386182        2.8619889037       -0.2173924624
 S         -1.8404097070        3.5704452246        0.3612197763
 C         -2.1644363804        2.2025527135        1.4006845122
 C         -3.2121118197        2.0947245421        2.2965094508
 C         -3.2647620448        0.9778363865        3.1119275698
 C         -2.2672911248        0.0135192780        3.0425258198
 C         -1.2268296226        0.1282766152        2.1399982685
 C         -1.1760256101        1.2154725596        1.2717239212
 C         -0.1490711055        1.5779203579        0.3083874582
 C          0.8942491327        0.7195286789       -0.0631089261
 C          0.8852030650       -0.7249137871        0.0915851911
 C         -0.1596718010       -1.5746542002       -0.2916761146
 C         -0.4166495704       -2.8505985006        0.2408744361
 C          0.3146952157       -3.5736658443        1.3092050564
 S         -1.8664388508       -3.5528147004       -0.3723405878
 C         -2.1546997437       -2.1875787852       -1.4262666943
 C         -3.1816441545       -2.0739313197       -2.3451487575
 C         -3.2109134866       -0.9561297877       -3.1605292348
 C         -2.2106120194        0.0034115470       -3.0687221883
 C         -1.1889815231       -0.1188260082       -2.1459419028
 C         -1.1625716347       -1.2071470320       -1.2781100292
 C          2.2503188953       -1.1570905821        0.5046702030
 F          2.6390164806       -2.3677676335        0.0389829447
 F          2.4176384524       -1.2359359730        1.8685698936
 C          3.1947036771       -0.0419047397       -0.0461139415
 F          4.1182916945        0.3353859244        0.8605973977
 F          3.8756205279       -0.5039779083       -1.1169761409
 C          2.2695733487        1.1529262835       -0.4428510029
 F          2.6873425423        2.2904001241        0.1692333410
 F          2.4339540571        1.4022546174       -1.7843706406
 H          1.3276409861        3.9648596739       -0.8651584805
 H         -0.1952556907        4.4335377161       -1.6245869104
 H          0.6191512873        2.9346962682       -2.1012184848
 H         -3.9550154435        2.8738606010        2.3641687402
 H         -4.0709571158        0.8700540337        3.8209508809
 H         -2.2969967821       -0.8342385411        3.7099324917
 H         -0.4393152391       -0.6060023975        2.1272473333
 H          1.1925743881       -4.0819459288        0.9063140283
 H         -0.3310641877       -4.3234889239        1.7611681139
 H          0.6591620364       -2.8894068467        2.0832942915
 H         -3.9279249289       -2.8482844161       -2.4286380247
 H         -4.0014248951       -0.8432364013       -3.8862302609
 H         -2.2223162257        0.8525787360       -3.7349031132
 H         -0.3971481056        0.6104775881       -2.1161806459
  45
        -91.21891111
 C         -0.1893335037        1.2004848990       -2.4098243278
 C         -0.7302728575        1.6837846183       -1.1140526780
 S         -1.9509329486        2.8979317596       -1.1523245076
 C         -1.9581932113        3.0263978394        0.5913217013
 C         -2.7913879073        3.8393544822        1.3358383397
 C         -2.7121766702        3.7698708884        2.7164480833
 C         -1.8362258007        2.8793977041        3.3212251667
 C         -1.0071031028        2.0670759519        2.5679817797
 C         -1.0318666931        2.1499095649        1.1779729066
 C         -0.3132756017        1.3628732417        0.1890102263
 C          0.6453385077        0.3852041192        0.4846948648
 C          1.0401031731       -0.7273952008       -0.3616599565
 C          0.1620748810       -1.5759873812       -1.0435232733
 C          0.4881090378       -2.3891467814       -2.1503405562
 C          1.7884369716       -2.5628219157       -2.8409922485
 S         -0.8912255170       -3.1449092280       -2.8553354994
 C         -1.9568145761       -2.4819081389       -1.6380058857
 C         -3.3111273315       -2.7363548136       -1.5248107905
 C         -3.9894862007       -2.2028017347       -0.4430005238
 C         -3.3041123574       -1.4685893112        0.5161807107
 C         -1.9503621558       -1.2167518787        0.3907947237
 C         -1.2551806200       -1.6831276820       -0.7221087785
 C          2.5077081696       -0.9571344920       -0.2085441069
 F          3.2619880110       -0.5455991723       -1.2794973710
 F          2.8488121018       -2.2611348786       -0.0293990413
 C          2.9292854919       -0.1215227360        1.0385901071
 F          3.6064009737       -0.8637927987        1.9369901444
 F          3.7522968390        0.8884171223        0.6755565418
 C          1.6095775127        0.4691962087        1.6197788994
 F          1.2458458656       -0.2808396862        2.7150074742
 F          1.8310296746        1.7141359155        2.1042566068
 H          0.8498551646        0.8991359251       -2.3051900186
 H         -0.2575728798        1.9901394031       -3.1560559397
 H         -0.7609366265        0.3466523968       -2.7778042191
 H         -3.4883671055        4.5010168830        0.8459343212
 H         -3.3466334919        4.3989863566        3.3213232200
 H         -1.8008173882        2.8124974422        4.3976939875
 H         -0.3569307871        1.3740873885        3.0720829766
 H          2.2211131128       -1.5991754441       -3.1124846861
 H          1.6495377516       -3.1500363723       -3.7465163700
 H          2.5078168239       -3.0797026337       -2.2047691828
 H         -3.8143135424       -3.3469243564       -2.2579516145
 H         -5.0476684512       -2.3820721537       -0.3326402163
 H         -3.8310417451       -1.0936071107        1.3803364023
 H         -1.4315359438       -0.6834408147        1.1688107107
