  58
        -86.51216564
 C         -1.1138120670        2.9262580431       -1.2069975534
 C         -1.6056805039        2.0811514473       -0.0016774404
 C         -1.2918337057        2.7445347584        1.3624873079
 C         -3.1166430975        2.0357425183       -0.0723749799
 C         -3.8297924556        3.2241864081       -0.1394608013
 C         -5.2120256623        3.2436449972       -0.1760409642
 C         -5.9142172710        2.0456636033       -0.1433276620
 C         -5.2350518792        0.8520513320       -0.0811668090
 C         -3.8308515050        0.8295900250       -0.0456709094
 N         -3.1563637989       -0.3663341133        0.0074782558
 C         -3.9266268690       -1.5669255275        0.0317105167
 C         -4.2917947811       -2.1777794826       -1.1608635076
 C         -5.0497638559       -3.3349152875       -1.1322503592
 C         -5.4425577833       -3.8797399106        0.0793603833
 C         -5.0772452766       -3.2676803855        1.2668370357
 C         -4.3191409528       -2.1099717102        1.2476337459
 C         -1.7849496682       -0.4625300176        0.0164147676
 C         -1.1999948207       -1.7349750035        0.0505924138
 C          0.1557412894       -1.8867631789        0.0570399816
 C          1.0194393045       -0.7529219845        0.0335811427
 C          2.3878378437       -0.9265360590        0.0442787401
 C          3.3053040476        0.1702743371        0.0413311165
 C          4.7211013844       -0.0231220144        0.0244861841
 C          5.6182727277        0.9909914445        0.4446735120
 C          6.9726068733        0.8069594008        0.4249817768
 C          7.5213414600       -0.4071656742       -0.0307986731
 C          8.9072753576       -0.5989795665       -0.0578420608
 N         10.0486490048       -0.7550551564       -0.0815706747
 C          6.6495423234       -1.4259981490       -0.4575928230
 C          5.2953595888       -1.2401187503       -0.4215292466
 C          2.7204340539        1.4489997630        0.0365951483
 C          1.3685431190        1.6431769968        0.0093503217
 C          0.4298495553        0.5562419406        0.0085453492
 C         -0.9584271372        0.7112384714       -0.0081199017
 H         -0.7890531152        3.9150547967       -0.8913461363
 H         -1.9209417775        3.0504956680       -1.9268017806
 H         -0.2935410776        2.4371759358       -1.7240270809
 H         -0.2311850740        2.7225192659        1.5889458550
 H         -1.6361484544        3.7752179389        1.3760158351
 H         -1.8122497633        2.2020458627        2.1509876258
 H         -3.2941241071        4.1605824956       -0.1688286917
 H         -5.7391083314        4.1834742426       -0.2280833828
 H         -6.9931080846        2.0464587564       -0.1700671749
 H         -5.7841107553       -0.0763574044       -0.0606423858
 H         -3.9780960893       -1.7430330679       -2.0981777857
 H         -5.3341004029       -3.8112324800       -2.0582490325
 H         -6.0338287790       -4.7825285325        0.0976997271
 H         -5.3819653195       -3.6912512218        2.2117809816
 H         -4.0270005360       -1.6239447264        2.1665586349
 H         -1.8326935875       -2.6087464978        0.0716703464
 H          0.5940508092       -2.8722154862        0.0833429099
 H          2.7676606689       -1.9346416906        0.0981746744
 H          5.2264892817        1.9207942295        0.8283702735
 H          7.6381599095        1.5869472632        0.7663862807
 H          7.0667710759       -2.3571974211       -0.8154886382
 H          4.6531972271       -2.0285239067       -0.7822550140
 H          3.3560804318        2.3210985444        0.0103726472
 H          1.0202839672        2.6592050025       -0.0232464955
  58
        -86.51207491
 C         -1.0622294940        2.9765306805       -1.0289901439
 C         -1.6069577690        2.0805715107        0.1148993921
 C         -1.3552522599        2.6866594087        1.5181196506
 C         -3.1133992230        2.0373491093       -0.0238461653
 C         -3.8241961578        3.2272240621       -0.0922672984
 C         -5.2031236333        3.2477867393       -0.1937194363
 C         -5.9043440257        2.0494006782       -0.2297574853
 C         -5.2276361474        0.8546367557       -0.1639961713
 C         -3.8272131159        0.8312169940       -0.0565459817
 N         -3.1553013963       -0.3658353669        0.0032117325
 C         -3.9252785472       -1.5662773005       -0.0279153155
 C         -4.4179224892       -2.0991271387        1.1556442335
 C         -5.1750020577       -3.2571112911        1.1215060459
 C         -5.4395639049       -3.8798974502       -0.0868251662
 C         -4.9469616360       -3.3452782480       -1.2660862464
 C         -4.1897167023       -2.1876154396       -1.2414187291
 C         -1.7847689549       -0.4624719176        0.0542228797
 C         -1.2007518265       -1.7357171958        0.0764758201
 C          0.1546757118       -1.8883950803        0.0956560011
 C          1.0186742593       -0.7545898476        0.0999109820
 C          2.3869627854       -0.9286057243        0.0835124893
 C          3.3038770983        0.1684041454        0.0759825902
 C          4.7189922244       -0.0225125227        0.0280092194
 C          5.5908776534        1.0004691131       -0.4226654162
 C          6.9439063577        0.8166446548       -0.4860474427
 C          7.5171159435       -0.4059595516       -0.0876462122
 C          8.9015458436       -0.5989845604       -0.1540889345
 N         10.0412002195       -0.7579206763       -0.2095829855
 C          6.6713368797       -1.4320696575        0.3733595468
 C          5.3174938201       -1.2464573536        0.4197400932
 C          2.7197519773        1.4465178549        0.1313914952
 C          1.3683466028        1.6402462476        0.1676383314
 C          0.4291295354        0.5548114483        0.1185803438
 C         -0.9583410462        0.7112649366        0.0831528666
 H         -0.7281026883        3.9404450099       -0.6532320246
 H         -1.8419385934        3.1548990567       -1.7668838735
 H         -0.2348172598        2.4976708971       -1.5437067239
 H         -0.3038737666        2.6704046223        1.7845709690
 H         -1.7165916434        3.7107813230        1.5626992298
 H         -1.8963984489        2.1030771031        2.2616673871
 H         -3.2890006333        4.1641958159       -0.0709190378
 H         -5.7281378961        4.1887495319       -0.2456659267
 H         -6.9805342406        2.0509660961       -0.3117553242
 H         -5.7755721620       -0.0740542512       -0.1974294286
 H         -4.2048722977       -1.6038792213        2.0912222350
 H         -5.5584427563       -3.6724399845        2.0410237522
 H         -6.0295541865       -4.7834078607       -0.1098357528
 H         -5.1509786300       -3.8307380079       -2.2083871693
 H         -3.7971913723       -1.7620328858       -2.1528831143
 H         -1.8336863366       -2.6095073340        0.0738188742
 H          0.5923792444       -2.8743531567        0.1075911093
 H          2.7658574415       -1.9369961526        0.0309330369
 H          5.1772529103        1.9364914795       -0.7652347462
 H          7.5891150332        1.6032795611       -0.8507099687
 H          7.1084400953       -2.3680802331        0.6914343455
 H          4.6966804458       -2.0403814806        0.8050249666
 H          3.3574469214        2.3162032619        0.1919475615
 H          1.0199029137        2.6543609737        0.2437731144
  58
        -86.51199217
 C         -1.1699195721        3.0062547007       -1.1777466430
 C         -1.6066718458        2.0869670947       -0.0063673689
 C         -1.2311149923        2.6658924698        1.3806627261
 C         -3.1192499721        2.0405406496       -0.0005892798
 C         -3.8340639220        3.2294493220        0.0380045900
 C         -5.2144560750        3.2476605134        0.1154684417
 C         -5.9117215077        2.0478500319        0.1716608024
 C         -5.2313332739        0.8540524472        0.1272464272
 C         -3.8306963805        0.8325450735        0.0242116776
 N         -3.1550011231       -0.3625104836       -0.0478529983
 C         -3.9118156345       -1.5688188611        0.0142084763
 C         -4.5665963829       -2.0382407398       -1.1175519222
 C         -5.3072677574       -3.2046763192       -1.0450385328
 C         -5.3951099336       -3.9005279393        0.1493386528
 C         -4.7407519568       -3.4301262227        1.2762320233
 C         -3.9985959486       -2.2642872878        1.2130790640
 C         -1.7877188257       -0.4511279677       -0.1648989428
 C         -1.2069409802       -1.7154920716       -0.3309970495
 C          0.1476466150       -1.8659155420       -0.3860116966
 C          1.0137041400       -0.7390568893       -0.2729678856
 C          2.3814176615       -0.9156356098       -0.2604408473
 C          3.2998207803        0.1762666899       -0.1632516531
 C          4.7115831616       -0.0243096668       -0.0731573704
 C          5.6370304080        1.0013016197       -0.3908260312
 C          6.9865342026        0.8115397054       -0.2826649500
 C          7.5007015939       -0.4207829122        0.1638595945
 C          8.8809189577       -0.6151852684        0.2887158648
 N         10.0175199339       -0.7708429086        0.3950979654
 C          6.6002678491       -1.4536837315        0.4839888923
 C          5.2523518390       -1.2616773427        0.3591998954
 C          2.7179491843        1.4562470976       -0.1378121620
 C          1.3663067676        1.6528362026       -0.1387548493
 C          0.4261196045        0.5679720954       -0.1790887504
 C         -0.9612353519        0.7220859921       -0.1310316248
 H         -0.8229297873        3.9713504188       -0.8168854155
 H         -2.0097802244        3.1791613973       -1.8479011472
 H         -0.3792114606        2.5482065304       -1.7641220315
 H         -1.7113539558        2.0721314822        2.1573690981
 H         -0.1610591802        2.6379497507        1.5558180193
 H         -1.5793802173        3.6910871915        1.4747712128
 H         -3.3008308324        4.1672081224        0.0071191576
 H         -5.7429981543        4.1876984654        0.1428613409
 H         -6.9881802122        2.0473230937        0.2506381231
 H         -5.7776809736       -0.0748395771        0.1749433542
 H         -4.4901000968       -1.4869737509       -2.0429806750
 H         -5.8151255284       -3.5708414301       -1.9244107428
 H         -5.9730753903       -4.8105428375        0.2019688787
 H         -4.8080598688       -3.9711719319        2.2077751289
 H         -3.4819963641       -1.8886739429        2.0837102739
 H         -1.8420813089       -2.5838766061       -0.4133238576
 H          0.5833809396       -2.8449870756       -0.5102651873
 H          2.7616709433       -1.9198301813       -0.3627004712
 H          5.2746607878        1.9469086487       -0.7643008994
 H          7.6751142610        1.6027969619       -0.5432637541
 H          6.9902845791       -2.3988856531        0.8343799147
 H          4.5849705108       -2.0614703062        0.6405106442
 H          3.3542440069        2.3260032119       -0.0672584804
 H          1.0184510993        2.6691950733       -0.0980745733
