  58
        -86.51216564
 C         -1.1138120670        2.9262580431       -1.2069975534
 C         -1.6056805039        2.0811514473       -0.0016774404
 C         -1.2918337057        2.7445347584        1.3624873079
 C         -3.1166430975        2.0357425183       -0.0723749799
 C         -3.8297924556        3.2241864081       -0.1394608013
 C         -5.2120256623        3.2436449972       -0.1760409642
 C         -5.9142172710        2.0456636033       -0.1433276620
 C         -5.2350518792        0.8520513320       -0.0811668090
 C         -3.8308515050        0.8295900250       -0.0456709094
 N         -3.1563637989       -0.3663341133        0.0074782558
 C         -3.9266268690       -1.5669255275        0.0317105167
 C         -4.2917947811       -2.1777794826       -1.1608635076
 C         -5.0497638559       -3.3349152875       -1.1322503592
 C         -5.4425577833       -3.8797399106        0.0793603833
 C         -5.0772452766       -3.2676803855        1.2668370357
 C         -4.3191409528       -2.1099717102        1.2476337459
 C         -1.7849496682       -0.4625300176        0.0164147676
 C         -1.1999948207       -1.7349750035        0.0505924138
 C          0.1557412894       -1.8867631789        0.0570399816
 C          1.0194393045       -0.7529219845        0.0335811427
 C          2.3878378437       -0.9265360590        0.0442787401
 C          3.3053040476        0.1702743371        0.0413311165
 C          4.7211013844       -0.0231220144        0.0244861841
 C          5.6182727277        0.9909914445        0.4446735120
 C          6.9726068733        0.8069594008        0.4249817768
 C          7.5213414600       -0.4071656742       -0.0307986731
 C          8.9072753576       -0.5989795665       -0.0578420608
 N         10.0486490048       -0.7550551564       -0.0815706747
 C          6.6495423234       -1.4259981490       -0.4575928230
 C          5.2953595888       -1.2401187503       -0.4215292466
 C          2.7204340539        1.4489997630        0.0365951483
 C          1.3685431190        1.6431769968        0.0093503217
 C          0.4298495553        0.5562419406        0.0085453492
 C         -0.9584271372        0.7112384714       -0.0081199017
 H         -0.7890531152        3.9150547967       -0.8913461363
 H         -1.9209417775        3.0504956680       -1.9268017806
 H         -0.2935410776        2.4371759358       -1.7240270809
 H         -0.2311850740        2.7225192659        1.5889458550
 H         -1.6361484544        3.7752179389        1.3760158351
 H         -1.8122497633        2.2020458627        2.1509876258
 H         -3.2941241071        4.1605824956       -0.1688286917
 H         -5.7391083314        4.1834742426       -0.2280833828
 H         -6.9931080846        2.0464587564       -0.1700671749
 H         -5.7841107553       -0.0763574044       -0.0606423858
 H         -3.9780960893       -1.7430330679       -2.0981777857
 H         -5.3341004029       -3.8112324800       -2.0582490325
 H         -6.0338287790       -4.7825285325        0.0976997271
 H         -5.3819653195       -3.6912512218        2.2117809816
 H         -4.0270005360       -1.6239447264        2.1665586349
 H         -1.8326935875       -2.6087464978        0.0716703464
 H          0.5940508092       -2.8722154862        0.0833429099
 H          2.7676606689       -1.9346416906        0.0981746744
 H          5.2264892817        1.9207942295        0.8283702735
 H          7.6381599095        1.5869472632        0.7663862807
 H          7.0667710759       -2.3571974211       -0.8154886382
 H          4.6531972271       -2.0285239067       -0.7822550140
 H          3.3560804318        2.3210985444        0.0103726472
 H          1.0202839672        2.6592050025       -0.0232464955
