  98
       -136.35739820
 C          7.4101527893       -0.7365062503        0.3456413537
 C          5.9565009289       -0.3862356971        0.2379532179
 C          5.3430630136        0.3947261186        1.2100207795
 C          4.0012471562        0.7092097655        1.1256439226
 C          3.2318495846        0.2476500615        0.0626037521
 C          1.7941872764        0.5768995266       -0.0281518994
 C          0.8588774656       -0.4515121896       -0.0384307418
 C          1.2830800222       -1.8605504396       -0.0618807400
 C          2.1159050960       -2.3884877510        0.9199874430
 C          2.4663147854       -3.7246431553        0.9005113061
 C          2.0038057201       -4.5757925886       -0.0946803069
 C          2.3615227086       -6.0413069027       -0.0825631376
 C          3.1057685948       -6.4404350521       -1.3580496930
 C          1.1034385684       -6.8937889273        0.1006796391
 C          1.1888290718       -4.0418147222       -1.0861379110
 C          0.8337428892       -2.7094029964       -1.0715452446
 C         -0.5260711748       -0.1417362856        0.0116715887
 C         -1.4784165402       -1.2658778110        0.0168015962
 C         -1.3988075872       -2.2776910411        0.9719799548
 C         -2.2372774874       -3.3720440492        0.9137729991
 C         -3.1802499372       -3.4989424636       -0.0993823915
 C         -4.0636733274       -4.7181717256       -0.1970235348
 C         -4.9322695673       -4.8791012477        1.0519890343
 C         -3.2137501213       -5.9695012414       -0.4313615777
 C         -3.2713915629       -2.4800997791       -1.0405536911
 C         -2.4364596672       -1.3817074833       -0.9873415606
 C         -0.9476649814        1.1830577086       -0.0051885482
 C          0.0006549146        2.2261631147       -0.2319605731
 C         -0.4973306942        3.4776691793       -0.6658712751
 N          0.3183230861        4.5057483141       -1.0629637252
 C         -1.8951257750        3.7034220588       -0.7696336562
 C         -2.8226008490        2.7863985585       -0.3493408170
 C         -4.2550403912        3.0315466797       -0.3633930010
 C         -4.8142708135        4.0638250431       -1.1090076006
 C         -6.1791650241        4.3189349707       -1.0916256094
 C         -7.0138177662        3.5339561304       -0.3152508118
 C         -6.4926900244        2.4869839919        0.4172367514
 C         -5.1151475019        2.1982568448        0.4021295180
 C         -4.5507415811        1.1053759236        1.1223797064
 N         -5.3103725111        0.3206411700        1.9578660409
 C         -3.1865176566        0.8043075540        0.9935011621
 C         -2.3393283704        1.5473406152        0.2052164073
 C          1.3873045200        1.9162465828       -0.1177479924
 C          2.4092487491        2.9650690980       -0.0188455096
 C          2.3199616418        3.9340345587        0.9858572938
 C          3.3027105289        4.8903516829        1.1333957665
 C          4.4067165855        4.9200830706        0.2877737143
 C          5.4873093547        5.9430234895        0.4657784009
 C          4.4946293858        3.9606616783       -0.7152017344
 C          3.5192039392        2.9963436574       -0.8668443668
 C          3.8418780052       -0.5388991300       -0.9082567944
 C          5.1854546266       -0.8487178892       -0.8202108366
 H          7.5404418057       -1.5913319196        1.0104625524
 H          7.9788864819        0.0955876620        0.7556875417
 H          7.8198264794       -0.9995141965       -0.6267968958
 H          5.9262251717        0.7618663480        2.0431151600
 H          3.5405910982        1.3144441588        1.8929415034
 H          2.4740801796       -1.7513526690        1.7154075946
 H          3.1051969453       -4.1160280853        1.6806877447
 H          3.0251786093       -6.2239552437        0.7698735134
 H          2.4712505660       -6.3135551429       -2.2314594426
 H          3.9927106833       -5.8236249365       -1.4857658559
 H          3.4124298703       -7.4830293420       -1.3056772267
 H          1.3641279044       -7.9486625743        0.1563073443
 H          0.5898915344       -6.6138162042        1.0179962752
 H          0.4180109864       -6.7508342712       -0.7308286450
 H          0.8187136525       -4.6743936519       -1.8796620993
 H          0.1998094757       -2.3152850974       -1.8525869296
 H         -0.6727995628       -2.2002785262        1.7680382235
 H         -2.1449111046       -4.1429732850        1.6648696150
 H         -4.7281423769       -4.5903172307       -1.0588460360
 H         -4.3162850191       -5.0319581712        1.9346962230
 H         -5.5933009781       -5.7363742100        0.9434919927
 H         -5.5416930281       -3.9908611515        1.2069218065
 H         -3.8498321979       -6.8420866812       -0.5638754381
 H         -2.6025994750       -5.8461840958       -1.3227478888
 H         -2.5522670440       -6.1495791253        0.4121657083
 H         -3.9989663000       -2.5558948142       -1.8374325619
 H         -2.5136688456       -0.6064945713       -1.7365554276
 H          1.2891541668        4.2989238341       -1.2323050267
 H         -0.1037120478        5.2290869399       -1.6212580724
 H         -2.2026599660        4.6645128076       -1.1528516577
 H         -4.1833365980        4.6795126487       -1.7308135734
 H         -6.5830344391        5.1286217625       -1.6806233866
 H         -8.0750456623        3.7340999691       -0.2855537829
 H         -7.1660845457        1.8891915181        1.0137830134
 H         -6.3069170387        0.3045207281        1.8208416446
 H         -4.9009948024       -0.5570563708        2.2355624582
 H         -2.8112890792       -0.0513798822        1.5316457469
 H          1.4717392827        3.9192861624        1.6546781860
 H          3.2191284449        5.6235381064        1.9234163141
 H          5.9094425421        6.2322349860       -0.4945350127
 H          6.2936999997        5.5330459022        1.0754229279
 H          5.1045473051        6.8300670259        0.9654228471
 H          5.3430584237        3.9691633880       -1.3851177456
 H          3.6049778214        2.2654139627       -1.6572588930
 H          3.2589920027       -0.9021524551       -1.7422818923
 H          5.6431191648       -1.4589470166       -1.5864988185
