  49
  -81.5184454200000       0.115691423525348      !
 C         -6.9679800208        2.3979084503        0.8147876737
 C         -6.7740587885        1.2400585198        1.5496890803
 C         -5.6865501581        0.4255385360        1.2936416742
 C         -4.7879430016        0.7641602483        0.2865466718
 N         -3.6839438676       -0.0609635118        0.0213862502
 C         -3.7268425778       -1.4238913677       -0.1970447656
 C         -4.8208215285       -2.2751694586       -0.2586743243
 C         -4.5839064544       -3.6111630797       -0.5189142624
 C         -3.2935491744       -4.0958457443       -0.7229240648
 C         -2.2034890780       -3.2500463945       -0.6854280869
 C         -2.4162079333       -1.9026605501       -0.4249854220
 C         -1.5453677017       -0.7648741261       -0.3282269412
 C         -0.1723187086       -0.6073653277       -0.4287082967
 C          0.3786469994        0.6565161180       -0.2594662994
 C          1.8311523182        0.8494746421       -0.3555565822
 C          2.3631325506        1.9768537181       -0.9953502980
 N          3.6530249814        2.2419522876       -1.1224861300
 C          4.4725814367        1.3575276057       -0.5980349427
 O          5.8214300675        1.4860355692       -0.6340345156
 C          6.3203986840        0.3996725947        0.0004990190
 N          7.6096931756        0.1947693277        0.1568228569
 C          7.9383234106       -0.9147848474        0.8031572769
 C          7.0224394032       -1.8355834559        1.3025700072
 C          5.6645751254       -1.6157677035        1.1353111391
 C          5.2933597512       -0.4613734738        0.4632636621
 C          4.0705674143        0.1732256144        0.0662916540
 C          2.7152934150       -0.0813446183        0.1880018719
 C         -0.4552506605        1.7474994798        0.0244865571
 C         -1.8229195597        1.6112857071        0.1364103481
 C         -2.3720582732        0.3507897156       -0.0569235395
 C         -4.9863919613        1.9249410607       -0.4546469652
 C         -6.0714024282        2.7383542732       -0.1843951622
 H         -7.8157438224        3.0334325181        1.0206112496
 H         -7.4684717502        0.9730559197        2.3322481918
 H         -5.5186034942       -0.4665380658        1.8787541998
 H         -5.8256235080       -1.9062302667       -0.1187390019
 H         -5.4182313845       -4.2949965944       -0.5683978978
 H         -3.1504504359       -5.1475364197       -0.9209921130
 H         -1.2052167455       -3.6224290912       -0.8594417109
 H          0.4563173215       -1.4550797347       -0.6560130564
 H          1.7063919844        2.7059080674       -1.4485992185
 H          9.0011640148       -1.0702220119        0.9235485104
 H          7.3755257179       -2.7158523616        1.8163067952
 H          4.9267647864       -2.3095441437        1.5103540583
 H          2.3534726752       -0.9577851113        0.7048441369
 H         -0.0072536987        2.7160367669        0.1882715742
 H         -2.4430913287        2.4600505276        0.3817340112
 H         -4.2960275558        2.1752511366       -1.2463892484
 H         -6.2210042772        3.6379783964       -0.7625227372
  49
  -81.5184208700000       0.112724616391424      !
 C         -6.9449344863        2.5099286126       -0.5697476018
 C         -6.0684736980        2.7014104429        0.4854481482
 C         -4.9899453213        1.8534847403        0.6593414393
 C         -4.7792484483        0.8076285701       -0.2340131451
 N         -3.6836848369       -0.0538080247       -0.0672070099
 C         -3.7379811878       -1.4333906752       -0.0446765307
 C         -4.8393654963       -2.2745630241       -0.1133180924
 C         -4.6160268889       -3.6358274445       -0.0387704148
 C         -3.3316081175       -4.1557720145        0.1079231040
 C         -2.2343766632       -3.3232188586        0.1984645876
 C         -2.4333013735       -1.9505699780        0.1267674261
 C         -1.5539011317       -0.8175455117        0.2032269526
 C         -0.1810552399       -0.6857825666        0.3417145496
 C          0.3771380779        0.5856869487        0.3694362508
 C          1.8285362861        0.7582453751        0.5132220483
 C          2.3477871178        1.7639344509        1.3392397830
 N          3.6347529158        2.0093485068        1.5222282391
 C          4.4640676578        1.2304825146        0.8629344351
 O          5.8115404582        1.3593493373        0.9316427668
 C          6.3231780267        0.4005595349        0.1251893567
 N          7.6150403102        0.2353625009       -0.0548690485
 C          7.9569297677       -0.7444090145       -0.8794840598
 C          7.0518498037       -1.5725322978       -1.5359543058
 C          5.6912457445       -1.3945342846       -1.3435417119
 C          5.3060120786       -0.3762248247       -0.4851715156
 C          4.0754194956        0.1729594673        0.0048101260
 C          2.7224654408       -0.0652427031       -0.1693854250
 C         -0.4473065301        1.7125078288        0.2390919640
 C         -1.8135053230        1.6036147114        0.0882370121
 C         -2.3707297520        0.3319737050        0.0864165376
 C         -5.6581863386        0.6185703827       -1.2965100732
 C         -6.7383843750        1.4664729149       -1.4570557707
 H         -7.7868278590        3.1725693351       -0.7007986897
 H         -6.2275899533        3.5119462763        1.1811807785
 H         -4.3164051899        1.9854681269        1.4931613163
 H         -5.8394194952       -1.8797274881       -0.2100094097
 H         -5.4562392835       -4.3120217543       -0.0922117211
 H         -3.1990272286       -5.2259987729        0.1600258630
 H         -1.2412674153       -3.7259166391        0.3290747499
 H          0.4416492049       -1.5615404751        0.4464646235
 H          1.6819106745        2.4040163202        1.9010007935
 H          9.0216408759       -0.8690689964       -1.0165845237
 H          7.4153560983       -2.3465602342       -2.1930275673
 H          4.9618181262       -2.0200656705       -1.8363744251
 H          2.3697884578       -0.8461345029       -0.8270490210
 H          0.0079405807        2.6913859368        0.2298455693
 H         -2.4265477042        2.4831267982       -0.0371411855
 H         -5.4797500331       -0.1829794710       -1.9979895514
 H         -7.4168398049        1.3161518774       -2.2835856989
  49
  -81.5184147400000       0.111995768224592      !
 C         -6.9689869494        2.4563038962       -0.6330992214
 C         -6.9754185479        1.5370726366        0.4028192736
 C         -5.8884624566        0.7066898730        0.6053287431
 C         -4.7869749598        0.7873588216       -0.2409018554
 N         -3.6844173688       -0.0590858651       -0.0458305435
 C         -3.7336977561       -1.4336736880        0.0765923114
 C         -4.8245385124       -2.2882390208        0.0056906118
 C         -4.5909017583       -3.6435650684        0.1364857582
 C         -3.3049960393       -4.1458692802        0.3256131112
 C         -2.2134397806       -3.3025263935        0.3746980649
 C         -2.4227932380       -1.9357015734        0.2456465335
 C         -1.5461404667       -0.7982789191        0.2254893681
 C         -0.1738674176       -0.6521431925        0.3526679413
 C          0.3779222339        0.6221411500        0.3143297408
 C          1.8295543941        0.8045658687        0.4420989216
 C          2.3532286630        1.8534548636        1.2097970033
 N          3.6411553896        2.1047531425        1.3769650825
 C          4.4673353849        1.2861676193        0.7635077101
 O          5.8152969156        1.4124733736        0.8260998270
 C          6.3230612961        0.4042274386        0.0796687454
 N          7.6144259883        0.2200581559       -0.0852898967
 C          7.9526757447       -0.8114244951       -0.8459999870
 C          7.0442685392       -1.6732765193       -1.4526236900
 C          5.6841624370       -1.4751740190       -1.2762982986
 C          5.3027836228       -0.4020771237       -0.4854980978
 C          4.0743853921        0.1825371444       -0.0322679452
 C          2.7205307314       -0.0586560994       -0.1939875598
 C         -0.4564515043        1.7381662474        0.1578329011
 C         -1.8229725019        1.6145278803        0.0205817974
 C         -2.3686717311        0.3380402050        0.0407531631
 C         -4.7829264277        1.7088813884       -1.2836094031
 C         -5.8704773973        2.5414783852       -1.4722481702
 H         -7.8181207828        3.1047245309       -0.7863350647
 H         -7.8281957317        1.4702191705        1.0618395602
 H         -5.8799180162        0.0030317772        1.4244374625
 H         -5.8221133464       -1.9096629849       -0.1583439719
 H         -5.4233750941       -4.3296776810        0.0863295800
 H         -3.1647701645       -5.2117198740        0.4257448707
 H         -1.2156513105       -3.6927695359        0.5075236369
 H          0.4527588954       -1.5173961282        0.5085777371
 H          1.6908588298        2.5249171868        1.7376413891
 H          9.0169972509       -0.9497838642       -0.9731999695
 H          7.4050282586       -2.4904504336       -2.0568577978
 H          4.9521765775       -2.1245983648       -1.7330217640
 H          2.3649706874       -0.8731886399       -0.8076641925
 H         -0.0106709495        2.7208281205        0.1239070298
 H         -2.4471705233        2.4880736995       -0.0905963818
 H         -3.9329718509        1.7565002238       -1.9481367825
 H         -5.8629075555        3.2540147784       -2.2835948787
  49
  -81.5183985900000       0.110098039847775      !
 C         -6.4016915571        2.5351542333        1.8859253882
 C         -6.4162005076        1.1835655548        2.1881194940
 C         -5.5140080990        0.3249267802        1.5876393693
 C         -4.5938741924        0.8176875481        0.6672428708
 N         -3.6798329955       -0.0509279490        0.0513912735
 C         -3.9947818523       -1.2337712822       -0.5888204279
 C         -5.2356571321       -1.8098022883       -0.8203920534
 C         -5.2725800032       -3.0013945747       -1.5187483991
 C         -4.1085072294       -3.6079346092       -1.9863135101
 C         -2.8731951533       -3.0278652946       -1.7792944788
 C         -2.8105926541       -1.8299742957       -1.0794807079
 C         -1.7319726390       -0.9566142342       -0.7099435707
 C         -0.3599784411       -1.0094588894       -0.8967275133
 C          0.4323994074        0.0077282708       -0.3795299170
 C          1.8889762539       -0.0182987550       -0.5644338543
 C          2.4420855398       -0.4153738035       -1.7893820339
 N          3.7360485518       -0.4684546347       -2.0588612305
 C          4.5384417117       -0.1120425150       -1.0799388230
 O          5.8890340199       -0.1099789235       -1.1940633843
 C          6.3672869886        0.3116348590       -0.0003886507
 N          7.6521166275        0.4398041162        0.2480089117
 C          7.9600155804        0.8647786309        1.4652027258
 C          7.0275053742        1.1686250336        2.4521966769
 C          5.6744762841        1.0322040870        2.1861396383
 C          5.3247683205        0.5897628031        0.9194841789
 C          4.1143468008        0.3104524806        0.2034681291
 C          2.7549056052        0.3549156594        0.4623488239
 C         -0.1622417641        1.0621804075        0.3278476704
 C         -1.5260158970        1.1382362146        0.5179904744
 C         -2.3161691969        0.1294532281       -0.0158627560
 C         -4.5837798682        2.1749728451        0.3602714677
 C         -5.4828526716        3.0275127501        0.9740189013
 H         -7.1048923049        3.2030097316        2.3596930192
 H         -7.1279179234        0.7960775338        2.9018452822
 H         -5.5068785409       -0.7259106147        1.8364106022
 H         -6.1444002647       -1.3387243729       -0.4773905244
 H         -6.2259439413       -3.4715420366       -1.7096086264
 H         -4.1798990715       -4.5405193045       -2.5256635924
 H         -1.9724816050       -3.4887587681       -2.1554824562
 H          0.0883624444       -1.8446524825       -1.4126499851
 H          1.7978306128       -0.6917066368       -2.6122190699
 H          9.0192795012        0.9661491172        1.6543314866
 H          7.3640316351        1.5085552845        3.4187897119
 H          4.9242265857        1.2591597230        2.9290139288
 H          2.3784711652        0.6499590285        1.4305810599
 H          0.4659508308        1.8502414896        0.7161359509
 H         -1.9605976423        1.9556340909        1.0731514682
 H         -3.8806169738        2.5505676150       -0.3682114431
 H         -5.4707745773        4.0798606844        0.7322045223
  49
  -81.5183909600000       0.109212684342748      !
 C         -6.4205282529        3.0826747968        0.6096901392
 C         -5.5069079900        2.7334920570        1.5903229285
 C         -4.6000015480        1.7139557222        1.3673179093
 C         -4.5976385548        1.0414088572        0.1490245080
 N         -3.6781584657        0.0067780727       -0.0823781813
 C         -3.9869138627       -1.2614894229       -0.5344155990
 C         -5.2241323231       -1.8202302888       -0.8214145682
 C         -5.2550842514       -3.1366540116       -1.2395908610
 C         -4.0888063422       -3.8889921632       -1.3635584734
 C         -2.8574106457       -3.3458016159       -1.0571602838
 C         -2.8007123998       -2.0238926276       -0.6353908126
 C         -1.7273454331       -1.1627937776       -0.2242963910
 C         -0.3559513416       -1.3343014163       -0.1251982902
 C          0.4308066928       -0.2657215133        0.2857594191
 C          1.8872472186       -0.4181729135        0.3974067674
 C          2.4386067795       -1.5835587407        0.9464192836
 N          3.7323578138       -1.8182442290        1.0914446833
 C          4.5358078939       -0.8630567579        0.6777098834
 O          5.8863813448       -0.9484891081        0.7533136884
 C          6.3664027285        0.2062764856        0.2359322663
 N          7.6517746954        0.4691282935        0.1499692021
 C          7.9614291910        1.6422583022       -0.3840097198
 C          7.0301363585        2.5700455906       -0.8401875631
 C          5.6764124826        2.2896347658       -0.7460591304
 C          5.3248149828        1.0694695634       -0.1891942361
 C          4.1132263017        0.3618905560        0.1061108615
 C          2.7538679444        0.5845846976       -0.0343659991
 C         -0.1678890727        0.9657098075        0.5863119176
 C         -1.5317301204        1.1543413458        0.5056293100
 C         -2.3164031105        0.0797659664        0.1099179042
 C         -5.5119106167        1.3971528125       -0.8378625513
 C         -6.4216362738        2.4113215145       -0.6016842918
 H         -7.1304697225        3.8755064639        0.7894396372
 H         -5.5054548847        3.2514240177        2.5378913029
 H         -3.9009577282        1.4224017964        2.1371336022
 H         -6.1345555845       -1.2506941391       -0.7113791572
 H         -6.2053007667       -3.5939291200       -1.4723236477
 H         -4.1553837215       -4.9139782227       -1.6961247126
 H         -1.9551696324       -3.9328836843       -1.1382838169
 H          0.0973391641       -2.2765256837       -0.3925183226
 H          1.7930798014       -2.3715409397        1.3079827144
 H          9.0212173718        1.8442437583       -0.4478603730
 H          7.3681732985        3.5017804994       -1.2650812123
 H          4.9269862970        2.9865839122       -1.0909594618
 H          2.3775139010        1.4932693519       -0.4806263221
 H          0.4569608440        1.7842559535        0.9118912640
 H         -1.9705862557        2.1136802958        0.7344660640
 H         -5.4944659459        0.8852493840       -1.7885313854
 H         -7.1295115692        2.6831514833       -1.3704594066
  49
  -81.5183730600000       0.107163480742746      !
 C         -6.4150749041        3.1011755162        0.5128666841
 C         -6.5932666983        1.8907232728        1.1621347416
 C         -5.6897314610        0.8606106064        0.9775393124
 C         -4.6016244434        1.0360301588        0.1279451242
 N         -3.6831298320       -0.0073441751       -0.0650761253
 C         -3.9968716460       -1.3082371110       -0.4078337834
 C         -5.2323903033       -1.8759313015       -0.6843672128
 C         -5.2638323473       -3.2128890492       -1.0316133373
 C         -4.0982640986       -3.9720368409       -1.1125704102
 C         -2.8642877228       -3.4075497046       -0.8597777822
 C         -2.8072934120       -2.0653834407       -0.5079202127
 C         -1.7280000239       -1.1702004978       -0.1977462550
 C         -0.3554843451       -1.3340748881       -0.1038804892
 C          0.4332898261       -0.2462422486        0.2491545514
 C          1.8898580277       -0.3935783284        0.3627876058
 C          2.4411492447       -1.5461562662        0.9392780989
 N          3.7343673787       -1.7785522618        1.0896172263
 C          4.5385788726       -0.8326721936        0.6562189939
 O          5.8889355608       -0.9179761368        0.7336910009
 C          6.3699226478        0.2270501035        0.1963713018
 N          7.6556548346        0.4871701170        0.1069047597
 C          7.9667825172        1.6511767163       -0.4455052531
 C          7.0364526556        2.5728030440       -0.9160234243
 C          5.6824218613        2.2947086254       -0.8192776100
 C          5.3291503756        1.0831931521       -0.2448515402
 C          4.1167825044        0.3811113120        0.0609855107
 C          2.7574291360        0.6001645448       -0.0877368684
 C         -0.1679741952        0.9917600798        0.5166835771
 C         -1.5327032935        1.1743866137        0.4367998022
 C         -2.3153989447        0.0904456983        0.0630767068
 C         -4.4265871256        2.2506020732       -0.5281140426
 C         -5.3299867578        3.2783475385       -0.3292693704
 H         -7.1204235106        3.9042686597        0.6628694529
 H         -7.4354599421        1.7501644816        1.8231447045
 H         -5.8120563926       -0.0774382705        1.4982847303
 H         -6.1393377134       -1.2921075423       -0.6398416101
 H         -6.2133710084       -3.6794320606       -1.2481574763
 H         -4.1657080378       -5.0144309019       -1.3854595060
 H         -1.9595189784       -3.9912185536       -0.9369543987
 H          0.0950799912       -2.2905295365       -0.3200021163
 H          1.7956402538       -2.3253204017        1.3193136786
 H          9.0268197467        1.8510433331       -0.5122578838
 H          7.3756815251        3.4983248658       -1.3533582492
 H          4.9339931207        2.9873773975       -1.1747635270
 H          2.3826359950        1.5000876182       -0.5526876130
 H          0.4547446857        1.8190325206        0.8237872210
 H         -1.9763726737        2.1293871799        0.6744360580
 H         -3.5905896612        2.3764871314       -1.2000658252
 H         -5.1895173579        4.2189699320       -0.8406576735
  49
  -81.5183573100000       0.105392234521634      !
 C         -6.4389026475        2.4188621422        1.9793070494
 C         -5.3308092715        1.9455259698        2.6620331683
 C         -4.4151712524        1.1286455715        2.0245230291
 C         -4.6015211612        0.7882783020        0.6883084564
 N         -3.6763305317       -0.0402021789        0.0345339287
 C         -3.9844136659       -1.1775573686       -0.6864276195
 C         -5.2131050448       -1.7901697305       -0.8872542148
 C         -5.2392091301       -2.9513036143       -1.6355415214
 C         -4.0749288713       -3.5003304964       -2.1691067789
 C         -2.8469954777       -2.9079650468       -1.9535879489
 C         -2.7952213731       -1.7408416257       -1.2027670182
 C         -1.7216595931       -0.8908642780       -0.7700886644
 C         -0.3507437588       -0.9172336456       -0.9688706416
 C          0.4335628258        0.0800742643       -0.4033568435
 C          1.8913117674        0.0627685310       -0.5808567544
 C          2.4528434581       -0.2692469350       -1.8211005876
 N          3.7489977148       -0.3260976401       -2.0787704736
 C          4.5446006904       -0.0441156109       -1.0704534119
 O          5.8963625050       -0.0673904812       -1.1665937648
 C          6.3667835847        0.2669185346        0.0574741061
 N          7.6504793935        0.3403480942        0.3322036234
 C          7.9505074569        0.6760821300        1.5789422824
 C          7.0109933033        0.9434602522        2.5699165013
 C          5.6591308886        0.8660634482        2.2756242176
 C          5.3175376360        0.5169400443        0.9780013486
 C          4.1114963877        0.3122909517        0.2299603652
 C          2.7496335060        0.3669553491        0.4744451841
 C         -0.1706448093        1.1063692852        0.3362413294
 C         -1.5344437079        1.1579834531        0.5359835265
 C         -2.3118392316        0.1424520143       -0.0041077438
 C         -5.7116808676        1.2700973854        0.0013407500
 C         -6.6271028523        2.0778939025        0.6502030672
 H         -7.1542803398        3.0519388334        2.4817935398
 H         -5.1827914730        2.2053236196        3.6996707065
 H         -3.5615947981        0.7388361378        2.5589565540
 H         -6.1181629290       -1.3815769628       -0.4638210744
 H         -6.1831890204       -3.4467693147       -1.8074875509
 H         -4.1383486623       -4.4076063478       -2.7508687116
 H         -1.9426808380       -3.3414138522       -2.3530594114
 H          0.1030126274       -1.7147226754       -1.5370029960
 H          1.8143396836       -0.4866770591       -2.6656957895
 H          9.0090176217        0.7317176973        1.7899769364
 H          7.3412788016        1.2088260390        3.5616094843
 H          4.9037102359        1.0662458522        3.0209984449
 H          2.3646781533        0.6127352624        1.4532038773
 H          0.4494639794        1.8942069461        0.7380195431
 H         -1.9811053462        1.9719587927        1.0867588796
 H         -5.8431203828        1.0174110580       -1.0402199052
 H         -7.4872385241        2.4483172777        0.1128628779
  49
  -81.5183260100000       0.101958662199543      !
 C         -6.9158099947        2.4000908835        0.9717171613
 C         -6.6979368424        1.2268871057        1.6749040473
 C         -5.6280177993        0.4115463573        1.3557747262
 C         -4.7714379360        0.7647961767        0.3174074470
 N         -3.6820099661       -0.0594759387       -0.0047351635
 C         -3.7365433483       -1.4209133913       -0.2282557166
 C         -4.8372789979       -2.2643609639       -0.2769544306
 C         -4.6140787059       -3.5997639598       -0.5519445748
 C         -3.3306144029       -4.0911653869       -0.7821427428
 C         -2.2341588197       -3.2529653114       -0.7564709034
 C         -2.4330638483       -1.9063106017       -0.4815105489
 C         -1.5535165055       -0.7745261844       -0.3922493988
 C         -0.1802157721       -0.6257459702       -0.5051707818
 C          0.3788240580        0.6349159766       -0.3419198290
 C          1.8328969770        0.8202361445       -0.4352922616
 C          2.3725951673        1.9209559303       -1.1132679243
 N          3.6641083502        2.1830114235       -1.2306581654
 C          4.4758960029        1.3247022075       -0.6530820183
 O          5.8245822292        1.4594467257       -0.6647600325
 C          6.3143955238        0.4070906419        0.0312865706
 N          7.6005927096        0.2201930259        0.2302873323
 C          7.9197094339       -0.8537384211        0.9387747638
 C          6.9972306964       -1.7558479959        1.4600187978
 C          5.6427519512       -1.5556686994        1.2468231767
 C          5.2815332239       -0.4388529532        0.5089161356
 C          4.0650187145        0.1687516011        0.0547020496
 C          2.7083047465       -0.0861729908        0.1604097966
 C         -0.4448707376        1.7325761310       -0.0558331231
 C         -1.8115065003        1.6039823135        0.0755049521
 C         -2.3693967361        0.3455035785       -0.1058203280
 C         -4.9950648874        1.9400143369       -0.3930128022
 C         -6.0620842532        2.7541105770       -0.0598982327
 H         -7.7488610398        3.0369711491        1.2273166674
 H         -7.3587446096        0.9487832008        2.4823252709
 H         -5.4409100750       -0.4932295348        1.9149828076
 H         -5.8367898907       -1.8893254835       -0.1166994355
 H         -5.4538497866       -4.2773955715       -0.5937157672
 H         -3.1982945093       -5.1417748882       -0.9928593339
 H         -1.2415420289       -3.6306832368       -0.9505677851
 H          0.4430624467       -1.4773775836       -0.7333388864
 H          1.7209306592        2.6295065719       -1.6051070726
 H          8.9799473080       -0.9935882490        1.0951025179
 H          7.3424956224       -2.6047529905        2.0283865930
 H          4.8998791960       -2.2348073039        1.6382136492
 H          2.3376740673       -0.9421510648        0.7048892239
 H          0.0115586970        2.6994547091        0.0949615331
 H         -2.4235351216        2.4564884992        0.3275673426
 H         -4.3390005633        2.2013565805       -1.2100263049
 H         -6.2311679278        3.6655953300       -0.6135755328
  49
  -81.5183147600000       0.100752072024866      !
 C         -7.0210701806        2.4372553754       -0.4271869999
 C         -6.9523829134        1.5062136320        0.5958894109
 C         -5.8496252778        0.6808157597        0.7142193596
 C         -4.8080500331        0.7783571466       -0.2034042760
 N         -3.6879675737       -0.0593712820       -0.0850276086
 C         -3.7195970727       -1.4329748668        0.0532173484
 C         -4.8038758133       -2.2983660034        0.0253873754
 C         -4.5525668870       -3.6504622026        0.1574195227
 C         -3.2562342130       -4.1389565564        0.3065538971
 C         -2.1721344185       -3.2846956428        0.3145579262
 C         -2.3992757726       -1.9209596633        0.1837622226
 C         -1.5356110656       -0.7749588635        0.1281839425
 C         -0.1632909969       -0.6140595981        0.2298817740
 C          0.3773935126        0.6644776621        0.1653345278
 C          1.8266989182        0.8583796351        0.2983704071
 C          2.3373260965        1.9496910631        1.0149906592
 N          3.6214361589        2.2020456140        1.2066432595
 C          4.4590252585        1.3383698949        0.6760516814
 O          5.8051221072        1.4495727205        0.7874988756
 C          6.3261243329        0.3853751756        0.1335819740
 N          7.6196041068        0.1660625073        0.0462863726
 C          7.9713483868       -0.9228404195       -0.6227406066
 C          7.0744795883       -1.8077729196       -1.2132913039
 C          5.7121603647       -1.5719983148       -1.1198543195
 C          5.3166712925       -0.4395044548       -0.4245146016
 C          4.0806494987        0.1924812724       -0.0650123363
 C          2.7306014333       -0.0452652011       -0.2594963403
 C         -0.4709647912        1.7688938861       -0.0010011145
 C         -1.8391751663        1.6311564849       -0.1045148798
 C         -2.3740436462        0.3512676135       -0.0463987567
 C         -4.8803875610        1.7100788240       -1.2340493452
 C         -5.9831366863        2.5377969712       -1.3385322911
 H         -7.8816421890        3.0828264112       -0.5139018595
 H         -7.7573161629        1.4273978143        1.3112873553
 H         -5.7811469549       -0.0320759218        1.5225165778
 H         -5.8102090217       -1.9301711695       -0.1063197795
 H         -5.3793456764       -4.3449367127        0.1409247498
 H         -3.1019595149       -5.2027040015        0.4080678959
 H         -1.1666286578       -3.6643755566        0.4159104075
 H          0.4713865912       -1.4721992457        0.3910137639
 H          1.6666687150        2.6566170071        1.4823067857
 H          9.0370741510       -1.0914238178       -0.6837139576
 H          7.4457058984       -2.6725713077       -1.7398887452
 H          4.9890736072       -2.2385089531       -1.5661417342
 H          2.3894498791       -0.8914640084       -0.8373325960
 H         -0.0368613898        2.7551472691       -0.0654232096
 H         -2.4727561009        2.4978256727       -0.2161809941
 H         -4.0781268761        1.7704658989       -1.9543659683
 H         -6.0351547189        3.2590260383       -2.1404758273
  49
  -81.5169980400000       2.501101817932204E-002 !
 C         -7.0412844244        2.4232637438        0.0524828693
 C         -6.8148395173        1.4612372316        1.0230272685
 C         -5.7088536102        0.6366455527        0.9399549712
 C         -4.8230574752        0.7661408143       -0.1259825088
 N         -3.6924349666       -0.0646208737       -0.1910718733
 C         -3.6969685750       -1.4350070430       -0.0186425962
 C         -4.7712563384       -2.3109365331        0.0430374851
 C         -4.4965274113       -3.6579050343        0.1810559670
 C         -3.1874787397       -4.1306106105        0.2491907581
 C         -2.1147185483       -3.2654043531        0.1714766033
 C         -2.3657613467       -1.9066236275        0.0337405831
 C         -1.5222059159       -0.7511288320       -0.0929760368
 C         -0.1503018193       -0.5705828279       -0.0385242815
 C          0.3755239930        0.7118371473       -0.1520242616
 C          1.8200773633        0.9266036513       -0.0025936719
 C          2.3055139094        2.0966735645        0.6004013302
 N          3.5786214978        2.3625714388        0.8393801971
 C          4.4337551489        1.4272358563        0.4892389098
 O          5.7686515381        1.5283735154        0.6997064811
 C          6.3087146836        0.3720268546        0.2494472285
 N          7.5951283469        0.1107567600        0.3231677987
 C          7.9659961651       -1.0736968480       -0.1423048314
 C          7.0951735246       -2.0139757937       -0.6841443832
 C          5.7406677260       -1.7322806105       -0.7642273805
 C          5.3254239404       -0.4997885692       -0.2835983118
 C          4.0839504692        0.2006552185       -0.1251284164
 C          2.7468175439       -0.0429080938       -0.3885553560
 C         -0.4945256632        1.7964277244       -0.3429609250
 C         -1.8642511486        1.6412360175       -0.3821031329
 C         -2.3832516515        0.3609256502       -0.2459825588
 C         -5.0557103583        1.7261422545       -1.1048222090
 C         -6.1606932309        2.5528868965       -1.0083709672
 H         -7.9023169761        3.0702360787        0.1235772170
 H         -7.4964258282        1.3580408161        1.8541824267
 H         -5.5148138062       -0.1016168963        1.7040657919
 H         -5.7878001536       -1.9537622823       -0.0258614812
 H         -5.3145489791       -4.3610616975        0.2311044081
 H         -3.0147949869       -5.1909864853        0.3564374945
 H         -1.1005590395       -3.6333061505        0.2120303104
 H          0.4936432686       -1.4192346966        0.1334350953
 H          1.6220242257        2.8634639226        0.9350296711
 H          9.0251412481       -1.2763752496       -0.0700950441
 H          7.4802079501       -2.9572721644       -1.0376326538
 H          5.0378151959       -2.4399150054       -1.1784819276
 H          2.4361244767       -0.9516296942       -0.8819305055
 H         -0.0801424404        2.7845926079       -0.4711501678
 H         -2.5101800039        2.4978403635       -0.4992140204
 H         -4.3773026011        1.8116924957       -1.9405351644
 H         -6.3382756576        3.2975950876       -1.7698360544
