78
 energy: -120.812533645260 gnorm: 0.000064512068 xtb: 6.7.1 (edcfbbe)
C            8.22376727952655        3.05287439794666        2.62531269375210
O            6.89265817156344        3.46537998068363        2.40246100491080
C            6.02185788383355        2.58506683462987        1.83014757696445
C            4.72072657925499        3.05640375287605        1.62799790165455
C            3.76368373574299        2.25381288006208        1.05482940106422
C            4.07327938458497        0.94649963009613        0.65910610919082
N            3.08651508915959        0.14040254983041        0.09581894180693
C            3.40620915262107       -0.82021594924886       -0.86170454543085
C            4.42107312572788       -0.59930526565925       -1.79984976060212
C            4.71043156389742       -1.54752775331069       -2.75258749062829
C            3.99205154055665       -2.74564040814755       -2.81139409927027
O            4.35960117074107       -3.61194214619196       -3.79995492155714
C            3.65811063899702       -4.82962925575012       -3.92687681737976
C            2.97800795992557       -2.96877708891396       -1.88473875461909
C            2.69331636615293       -2.01815142406787       -0.92393409930390
C            1.78184880441505        0.23738623292184        0.58973963165131
C            1.60003521014455        0.26889983246140        1.99638353776200
C            0.34453978932316        0.29687312143146        2.52729494433297
C           -0.78584373825114        0.28380554083025        1.68664182387724
C           -0.65285829855628        0.26007287657795        0.29708043179673
C           -1.77725896984064        0.27707371447379       -0.57935632350078
N           -3.08069924831550        0.11119706268086       -0.09984144132988
C           -3.39000304811664       -0.95463327639790        0.74245350995693
C           -2.65871598746292       -2.14611606192681        0.67048299646376
C           -2.94434998096464       -3.19328702853978        1.51366888548449
C           -3.97050824444695       -3.09304905962310        2.45750906933582
O           -4.17151541936157       -4.19373383459920        3.23918921597928
C           -5.19962074151007       -4.15880094106322        4.20499449274188
C           -4.70000795544082       -1.91003488927895        2.53604672078850
C           -4.40770697151542       -0.85608709773633        1.69157706483092
C           -4.07589493114389        0.96257643369710       -0.57475592079541
C           -5.37030488359553        0.50186383683259       -0.84506688202115
C           -6.32670931827947        1.35754906594407       -1.33798765047187
C           -6.02740271179001        2.70100136027487       -1.58656281551270
O           -7.05097306085473        3.45774396909415       -2.07719366670942
C           -6.80846781764773        4.81717646909824       -2.36786251328381
C           -4.74026433738742        3.16380008001975       -1.32624580324506
C           -3.78157717495590        2.30381422454354       -0.82785677372810
C           -1.59722829343478        0.46527637011714       -1.97389338797430
C           -0.34260004128301        0.56966082683625       -2.49759712452418
C            0.78858854997725        0.48132669581142       -1.66257356909166
C            0.65708401824001        0.30176209775584       -0.28422810657216
C            5.37042769210232        0.47702999558660        0.87251459780953
C            6.33426872910261        1.28357589670596        1.44604904429569
H            8.26905190681386        2.20518352183685        3.31582083224820
H            8.72295086490760        3.91074921476807        3.07297657358148
H            8.72269547419056        2.79004785101685        1.68759126830751
H            4.48966011094133        4.06692525237657        1.92710452843406
H            2.76403247781891        2.62868147867946        0.89451609963719
H            4.96782852969141        0.33173195732979       -1.78439659570918
H            5.48890351036929       -1.38052130475611       -3.48075260307419
H            2.59560434576735       -4.65940922226350       -4.12542805555007
H            4.10908021925959       -5.33768105236887       -4.77782423981268
H            3.76957552438129       -5.44991090613734       -3.03226421600827
H            2.40587683740922       -3.88266900965211       -1.89560725539348
H            1.91225839930371       -2.20399040011716       -0.20200691517107
H            2.47453313380045        0.23109954871248        2.62976236658016
H            0.20181643776033        0.30260186110050        3.59805086491076
H           -1.76593402121590        0.30927119310112        2.13591720173260
H           -1.87119759296015       -2.23761835775529       -0.06201840645311
H           -2.38787863218338       -4.11596190578239        1.45860637207028
H           -5.02279088710994       -3.37597228406777        4.94886836672222
H           -5.17445340416347       -5.13239087869952        4.69191851118482
H           -6.17910591869087       -4.00961707814965        3.74035638699029
H           -5.49248693464370       -1.79213513912941        3.25775310623565
H           -4.96655103002181        0.06412295054453        1.77865087576237
H           -5.61126027894834       -0.53752453776592       -0.68036915155867
H           -7.32389963385516        1.00699256125576       -1.55438153414399
H           -6.02969911483019        4.93015274466055       -3.12814987506353
H           -6.52731472099978        5.37377203391784       -1.46864161945461
H           -7.75009013541818        5.20467692773917       -2.75349309858108
H           -4.47327313994211        4.19360745862499       -1.50189216489089
H           -2.78732134204776        2.67082050148767       -0.62063605382989
H           -2.47187030833118        0.48325244081966       -2.60807698253673
H           -0.20050737510353        0.69521885183564       -3.56115272661604
H            1.76774791821882        0.57132650574078       -2.10561859627173
H            5.62139841630621       -0.53658740648828        0.59741557692658
H            7.32328166856602        0.88175005544908        1.59829132420091
