78
 energy: -120.812512248343 gnorm: 0.000053530349 xtb: 6.7.1 (edcfbbe)
C            8.25456579312895        2.91576278046194        2.69369022465501
O            6.92438877963788        3.34388039331176        2.49608872247039
C            6.04601491981966        2.49286697296641        1.89184596655571
C            4.74819320788857        2.98142929314543        1.71030901934304
C            3.78386330621162        2.20842764603776        1.10929446625250
C            4.08238340736886        0.91422246879374        0.66499536848589
N            3.08848510093617        0.13498397098915        0.07629398223107
C            3.40208348165652       -0.78826083988710       -0.91956405487255
C            4.41020973222078       -0.52924699653273       -1.85517609244346
C            4.69199453159981       -1.43740203835342       -2.84831959734764
C            3.97234978397943       -2.63187435416732       -2.95083142024687
O            4.33065795909826       -3.45608024536691       -3.97806352902399
C            3.62641524202628       -4.66654164058533       -4.15051957490736
C            2.96623770352802       -2.89343552978015       -2.02562749831237
C            2.68933695546044       -1.98328958596402       -1.02419876315132
C            1.78704446554724        0.21882781561557        0.57983830065574
C            1.61464057996525        0.21611439361494        1.98827394572350
C            0.36316108678978        0.23750113049367        2.52842862312628
C           -0.77309823454302        0.24745639569600        1.69578840152034
C           -0.65040704100661        0.25003892071086        0.30505206985297
C           -1.78111285204869        0.28178594690997       -0.56322163095085
N           -3.08177826530133        0.11206464096875       -0.07878574653698
C           -3.38771234391170       -0.95431521051218        0.76451607483677
C           -2.66219102411963       -2.14877922231408        0.68512100593589
C           -2.94364786327375       -3.19452333108998        1.53158914468931
C           -3.95936659767064       -3.08953176983739        2.48614610794264
O           -4.15576627799137       -4.18812984682446        3.27195509833844
C           -5.17230407783634       -4.14678370239243        4.24971377486907
C           -4.68418002538709       -1.90401750018204        2.57081539775308
C           -4.39633689066948       -0.85178360877845        1.72279842568598
C           -4.08177384948944        0.96136086476158       -0.54798905315636
C           -5.37542070420872        0.49559892695853       -0.81332475905946
C           -6.33725285916924        1.34738297169312       -1.30231972014367
C           -6.04426438285359        2.69202860804830       -1.55209393541831
O           -7.07249245020937        3.44440752402445       -2.03976843422272
C           -6.83589664417435        4.80416192650549       -2.33372803814107
C           -4.75829101592552        3.16016189229106       -1.29569552969769
C           -3.79425054519134        2.30417000187144       -0.80066925661302
C           -1.61009066667511        0.49080039391865       -1.95615209826765
C           -0.35951176943236        0.61027957011337       -2.48579133262256
C            0.77726578722418        0.51263130964406       -1.65957073264088
C            0.65581093181555        0.30368071215797       -0.28441868431638
C            5.37666197731326        0.42775100723887        0.85645206109993
C            6.34785802965339        1.20469500317476        1.45763420429544
H            8.29972874864829        2.04035974897375        3.34871449462092
H            8.76116713924354        3.75193882183284        3.17296552566515
H            8.74620532193733        2.68896228259356        1.74278425334581
H            4.52574785017717        3.98198858095348        2.04708807278820
H            2.78695838061791        2.59689054930072        0.96522675711512
H            4.95699264500354        0.40058921916192       -1.80543529184248
H            5.46471684753138       -1.24048214990802       -3.57509838173071
H            3.74570339207199       -5.32485033632823       -3.28454395262664
H            2.56226693142861       -4.48694227919316       -4.33128353428939
H            4.06842228631907       -5.13784198858017       -5.02697023281895
H            2.39379130345228       -3.80612298493166       -2.06979495409846
H            1.91397029602216       -2.19858860734549       -0.30439556620537
H            2.49310884462781        0.15953922924014        2.61468436213429
H            0.22781036219420        0.21933268647940        3.60000463780363
H           -1.74935772878008        0.26784259174532        2.15329248384483
H           -1.88216977353009       -2.24340222034921       -0.05495839110116
H           -2.39134310851775       -4.11938216908107        1.47147147492198
H           -4.98382685804394       -3.36251348561243        4.98922154642880
H           -5.14503944561859       -5.11907205476945        4.73909458940337
H           -6.15660583147284       -3.99518238285593        3.79617355401543
H           -5.46899357619800       -1.78262236294545        3.30024991439728
H           -4.95091423161548        0.07057456540675        1.81447803887982
H           -5.61147200867702       -0.54481376200465       -0.64793266381240
H           -7.33377906278683        0.99272655334334       -1.51505730507585
H           -6.06116495504478        4.91837936301378       -3.09795762273151
H           -6.55223700442447        5.36317890770419       -1.43681539470091
H           -7.78063391022410        5.18794572786526       -2.71543830972647
H           -4.49623033268304        4.19112553565256       -1.47201209557426
H           -2.80100578323766        2.67559346640575       -0.59653687203453
H           -2.48857741393130        0.51434529207835       -2.58476752235103
H           -0.22456344520518        0.75413032107818       -3.54796291383902
H            1.75270048135967        0.61643828406688       -2.10749329447070
H            5.61910977437906       -0.57658476552779        0.54232428468416
H            7.33423506585767        0.79016389289557        1.59168209828057
