78
 energy: -120.892688525878 gnorm: 0.000065998453 xtb: 6.7.1 (edcfbbe)
C            6.55597800977516        4.97062530109057        2.55051383862201
O            6.85664461137042        3.61629430358538        2.29623086062401
C            5.87400107436896        2.81518151669422        1.78235372127025
C            4.57949694584870        3.22636374272926        1.48625007124398
C            3.66950931910063        2.32770812009338        0.95959423855516
C            4.02080275361101        1.00115335226959        0.72445141403113
N            3.07590241327421        0.11566194938345        0.19241912900027
C            3.46054389150790       -0.93745365888420       -0.64138881178731
C            4.50429320335437       -0.78308139476818       -1.55791986305528
C            4.87340382803071       -1.82346984033688       -2.37997281580717
C            4.20614674791782       -3.04868035974470       -2.32589605328474
O            4.65585024608182       -4.01269956771661       -3.18745806220459
C            4.02289869581873       -5.27267499591167       -3.17538050176482
C            3.15783945851757       -3.20344612966820       -1.42725696812217
C            2.79746090188216       -2.16065462253825       -0.59222214510570
C            1.75180434292149        0.18740550097961        0.66125055933607
C            1.51300266162235        0.26905625447221        2.01499433645161
C            0.20703961390752        0.33355513548034        2.50634372804285
C           -0.86039419785205        0.27683325561653        1.65228353482955
C           -0.66265494094695        0.19984127228038        0.25836219595164
C           -1.75180273648095        0.18743282930871       -0.66125100237981
N           -3.07590242218746        0.11571942313189       -0.19241903509572
C           -3.46056512376460       -0.93738278147199        0.64139602233909
C           -2.79750617572378       -2.16059717644198        0.59223798957475
C           -3.15790618656051       -3.20337625479025        1.42727902197606
C           -4.20621157314082       -3.04858420658596        2.32591579411921
O           -4.65593366996665       -4.01258837383771        3.18748487032506
C           -4.02300487114794       -5.27257531350112        3.17541811716325
C           -4.87344352723703       -1.82335971885287        2.37998512105689
C           -4.50431167468279       -0.78298379964488        1.55792577221781
C           -4.02078376511253        1.00122767403070       -0.72445671073637
C           -5.31821355948371        0.59046624820553       -1.03664527476829
C           -6.22990786401877        1.48557327821320       -1.55029690068885
C           -5.87394123249236        2.81528888301614       -1.78237437417941
O           -6.85656689952911        3.61642013308060       -2.29625706793759
C           -6.55586899870439        4.97074194501450       -2.55055205477028
C           -4.57942834590777        3.22644473670905       -1.48627253302515
C           -3.66946107226373        2.32777306169959       -0.95960900266349
C           -1.51299967238622        0.26906680014888       -2.01499555809310
C           -0.20703534770283        0.33353301263772       -2.50634584107806
C            0.86039741612039        0.27680035679201       -1.65228508941456
C            0.66265682584106        0.19982646378066       -0.25836288590788
C            5.31822335449500        0.59036527087957        1.03664298383963
C            6.22993766899736        1.48545590707200        1.55028757841792
H            7.47268984101677        5.40244601562804        2.94904138208424
H            5.75556832674021        5.07050115738333        3.29030514569754
H            6.27529612665585        5.49718091223525        1.63297434913451
H            4.26631098690737        4.24470186309173        1.65272338141408
H            2.66800179925237        2.65928003392339        0.72773455764093
H            5.02162518403369        0.16254455671405       -1.62314191290835
H            5.68029164241183       -1.70876079874497       -3.08715643129052
H            2.96424388793524       -5.19100754719012       -3.44111611806065
H            4.53998223265250       -5.86574159847207       -3.92813865705418
H            4.11976704647685       -5.75952932042342       -2.19982791458799
H            2.61698593562585       -4.13380124394486       -1.35714891104212
H            1.98690727410199       -2.29895609765448        0.10808150373590
H            2.34881009310217        0.28424662513888        2.69959657755043
H            0.04657989467799        0.41136966134826        3.57153822109999
H           -1.86464255913539        0.31516212481701        2.04326001017840
H           -1.98695475799695       -2.29891921230446       -0.10806412366744
H           -2.61706947336316       -4.13374171953656        1.35717906404576
H           -4.11988162743482       -5.75943582750088        2.19986948041923
H           -4.54009977590724       -5.86562621311791        3.92818081509504
H           -2.96434867183642       -5.19092497798143        3.44115367555061
H           -5.68033100969069       -1.70863086111156        3.08716583031268
H           -5.02162758418023        0.16265149956850        1.62313884386306
H           -5.60713065908197       -0.43744161290438       -0.87651944727042
H           -7.23400251879659        1.17330845012293       -1.79241268481147
H           -6.27517421531207        5.49729926555861       -1.63301747424942
H           -7.47257092417832        5.40258059282154       -2.94908297304586
H           -5.75545740538134        5.07059248163541       -3.29034467650206
H           -4.26622029247634        4.24477511491279       -1.65275163098600
H           -2.66794636297292        2.65932464624124       -0.72775134070797
H           -2.34880695326062        0.28426820064027       -2.69959768317308
H           -0.04657435975105        0.41134399030575       -3.57154040026739
H            1.86464633753100        0.31511375012627       -2.04326161099127
H            5.60711844838811       -0.43754951507229        0.87652197620272
H            7.23402596616498        1.17317107001352        1.79240382946544
