  144
       -230.37590236
 O         -0.2111400232       -7.0331437925        0.4318747684
 C         -0.2081596632       -5.8180073587        0.3740586078
 C          1.0274616146       -5.0146346218        0.1772934497
 C          1.9743042076       -5.3821342462       -0.7738333989
 C          3.0814065244       -4.5877435157       -0.9983048088
 C          3.2880588645       -3.4398458031       -0.2335521359
 N          4.4335774300       -2.6641897966       -0.4213369367
 C          5.7125794740       -3.1851910599       -0.3304568597
 C          6.1061993360       -4.5120219149       -0.2406393768
 C          7.4505438386       -4.7837422293       -0.0800124369
 C          8.3771952300       -3.7524347061        0.0291761047
 C          7.9860802764       -2.4299287424       -0.0229845081
 C          6.6435651960       -2.1253180472       -0.2297537938
 C          5.8764358304       -0.9083143423       -0.2650810488
 C          6.1815533270        0.4544786777       -0.1196618788
 C          5.1604355752        1.4037746759        0.1172511418
 C          5.8197270010        2.6257284983        0.4909812002
 C          5.3987454754        3.8514207534        0.9991893088
 C          6.3356565446        4.8384783920        1.2281852967
 C          7.6847325066        4.6302775202        0.9573138231
 C          8.1382299025        3.4025968999        0.5159891421
 C          7.2060350469        2.3934531734        0.3280490349
 N          7.4087593683        1.0780415743       -0.0422007479
 C          8.6104999200        0.6054752851       -0.5883676061
 C          9.8031338224        0.7146226153        0.1207182672
 C         10.9842934460        0.2725230996       -0.4479641109
 C         10.9847681677       -0.2835721589       -1.7164667572
 C          9.7970554947       -0.3980222118       -2.4204561352
 C          8.6136400428        0.0495631855       -1.8653962087
 C          3.8353869134        1.0210311315       -0.1380282376
 C          3.4995436318       -0.3214343038       -0.4346578906
 C          2.1016495513       -0.3247342317       -0.7737654199
 C          1.2324589051       -1.2543453932       -1.3379619914
 C         -0.0616180101       -0.8708191737       -1.6273458670
 C         -0.5126347687        0.4198420347       -1.3700647694
 C          0.3418108625        1.3805199668       -0.8691941067
 C          1.6452247459        1.0018503327       -0.5902203889
 N          2.7017387809        1.8003416773       -0.2002497082
 C          2.6690369079        3.1991172085       -0.3354411525
 C          3.4783352208        3.8180357061       -1.2839442795
 C          3.4467768645        5.1915687025       -1.4286162735
 C          2.6069255190        5.9554826902       -0.6351952910
 C          1.7917469495        5.3398097687        0.2990909561
 C          1.8136146229        3.9648281937        0.4477801247
 C          4.5181059697       -1.2874778002       -0.3671005776
 C          2.3611166305       -3.0933260467        0.7492734702
 C          1.2324306260       -3.8605108092        0.9330171763
 C         -1.4367811933       -4.9953941004        0.4769064437
 C         -1.5217368307       -3.7955975941       -0.2297341445
 C         -2.6505418952       -3.0158985610       -0.1461376570
 C         -3.7142009940       -3.4030583550        0.6691522502
 N         -4.8369863503       -2.5776645264        0.7453176250
 C         -6.1127285558       -2.9763775755        0.3861332078
 C         -6.6179199719       -4.2588913118        0.2437039117
 C         -7.9554444811       -4.3988901397       -0.0733440366
 C         -8.7719892987       -3.2832626839       -0.2238343977
 C         -8.2622300906       -2.0037522160       -0.1274205049
 C         -6.9054369870       -1.8325572302        0.1303817273
 C         -6.0373818826       -0.6929270421        0.2834647800
 C         -6.1661322555        0.6919088579        0.0967885363
 C         -5.1452807543        1.5882623810        0.4958632545
 C         -5.6827605125        2.9136285991        0.3289486221
 C         -5.2734941732        4.1963871692        0.6846416123
 C         -6.0667747691        5.2739316612        0.3460842077
 C         -7.2639351793        5.1039470062       -0.3424725155
 C         -7.7283533472        3.8402058617       -0.6483036604
 C         -6.9539741571        2.7533919617       -0.2717275104
 N         -7.2315213636        1.4078407215       -0.4040487191
 C         -8.2436480535        0.9157244867       -1.2424250947
 C         -9.5728537654        1.2625032668       -1.0217835887
 C        -10.5557240815        0.7983070793       -1.8777232392
 C        -10.2228064127       -0.0128687787       -2.9498598905
 C         -8.8998900877       -0.3609341191       -3.1680201086
 C         -7.9102109849        0.1045668873       -2.3236485198
 C         -3.9246435955        1.0538846332        0.9367080377
 C         -3.7603127474       -0.3384880635        1.1332491656
 C         -2.4747260088       -0.5138420941        1.7557024839
 C         -1.8084173882       -1.5782829970        2.3570395700
 C         -0.5504850068       -1.3687236872        2.8855717201
 C          0.0697377466       -0.1251288111        2.8120846544
 C         -0.5943020504        0.9613610652        2.2815127329
 C         -1.8791451722        0.7680160553        1.7997859461
 N         -2.7638546383        1.7006428507        1.3016115113
 C         -2.3931759647        3.0120082281        0.9740104238
 C         -1.8851288622        3.8616387608        1.9520828723
 C         -1.5164092158        5.1524567190        1.6184595029
 C         -1.6412879246        5.5999492994        0.3132040206
 C         -2.1359841870        4.7511880830       -0.6630734041
 C         -2.5116424197        3.4616248684       -0.3381906614
 C         -4.7954285637       -1.1951497224        0.7296751837
 C         -3.6423702664       -4.6089454300        1.3659191444
 C         -2.5182902975       -5.4038866607        1.2545264851
 H          1.8135476515       -6.2747994503       -1.3595149009
 H          3.7786602378       -4.8391275370       -1.7825403815
 H          5.3863885013       -5.3146198954       -0.2650880823
 H          7.7808773918       -5.8095530508       -0.0154411620
 H          9.4198404834       -3.9898166475        0.1791081118
 H          8.7186191327       -1.6566364472        0.1190005108
 H          4.3644526974        4.0304628952        1.2361616203
 H          6.0148512306        5.7919692169        1.6207103741
 H          8.3906774555        5.4317365843        1.1154859590
 H          9.1874614169        3.2381270807        0.3257697975
 H          9.7934168593        1.1182397445        1.1219927202
 H         11.9068705142        0.3546764195        0.1072217494
 H         11.9084111853       -0.6305470592       -2.1538628485
 H          9.7930791268       -0.8318380543       -3.4090958603
 H          7.6839002291       -0.0336539583       -2.4076456034
 H          1.5672238130       -2.2464912352       -1.5896928986
 H         -0.7335259938       -1.5764213022       -2.0927861864
 H         -1.5346227401        0.6813117904       -1.6014249387
 H          0.0132892183        2.3986843714       -0.7299830742
 H          4.1315677789        3.2153780589       -1.8961527256
 H          4.0801915911        5.6667880549       -2.1622208636
 H          2.5884947876        7.0291827145       -0.7441733603
 H          1.1398119612        5.9314609924        0.9225398565
 H          1.1859294052        3.4845910085        1.1822986836
 H          2.5236910086       -2.2116906404        1.3476639254
 H          0.5054146585       -3.5749171287        1.6745601173
 H         -0.7025707523       -3.4879239795       -0.8569495880
 H         -2.7173754185       -2.0920519552       -0.6974273087
 H         -5.9908867469       -5.1269156988        0.3722545495
 H         -8.3741410479       -5.3877503661       -0.1848402374
 H         -9.8239962445       -3.4191152330       -0.4256046940
 H         -8.9212386276       -1.1608231434       -0.2330344139
 H         -4.3681126708        4.3610052784        1.2401036086
 H         -5.7496905479        6.2692318292        0.6199910938
 H         -7.8487090533        5.9680694398       -0.6198747507
 H         -8.6680546709        3.7049214587       -1.1611842408
 H         -9.8300644745        1.8721839974       -0.1685474082
 H        -11.5869697678        1.0655481930       -1.7010414851
 H        -10.9936040071       -0.3752399205       -3.6127520403
 H         -8.6365294304       -0.9932646497       -4.0025314197
 H         -6.8766347597       -0.1598027386       -2.4879170007
 H         -2.2681996678       -2.5472942891        2.4455662794
 H         -0.0380229716       -2.1814147838        3.3803271070
 H          1.0690565889       -0.0019863764        3.2032465067
 H         -0.1302729520        1.9340946531        2.2585828611
 H         -1.8131724337        3.5159603867        2.9726783802
 H         -1.1419799659        5.8139151514        2.3863362230
 H         -1.3592102782        6.6097767805        0.0567932824
 H         -2.2318163234        5.0963558371       -1.6814046476
 H         -2.9106981831        2.7996649896       -1.0908543936
 H         -4.4522656988       -4.9014540639        2.0162019093
 H         -2.4503268894       -6.3363201789        1.7945418762
