  60
        -90.42500318
 C          0.0165805119       -2.0493804628       -2.2029864384
 C         -0.5051960537       -1.0514387219       -1.2129759218
 C         -1.8739022565       -0.9420598892       -1.0172626200
 C         -2.4116535937       -0.0534986106       -0.0971766009
 N         -3.8101599527        0.0153367928        0.0507894401
 C         -4.6145115420       -1.0066469006        0.5033585073
 C         -4.2605385475       -2.2791105002        0.9274644194
 C         -5.2713420680       -3.1156641956        1.3594196107
 C         -6.6014239367       -2.6994480320        1.3765650444
 C         -6.9569671337       -1.4305628430        0.9647077714
 C         -5.9597885234       -0.5703647213        0.5234038028
 C         -5.9542894486        0.7815833404        0.0389376568
 C         -6.9478626020        1.7243362597       -0.1905683080
 C         -6.5871130014        2.9552597431       -0.7014103932
 C         -5.2576847830        3.2486898862       -0.9991001556
 C         -4.2509141927        2.3279535193       -0.7821057039
 C         -4.6051594520        1.0986051881       -0.2448582400
 C         -1.5733414385        0.7377886051        0.6927950134
 C         -2.1294867996        1.6486740993        1.7430840836
 C         -0.2077413011        0.6284397819        0.4898789229
 C          0.3392881067       -0.2344996150       -0.4555661344
 C          1.8053198376       -0.2666656701       -0.6060859564
 C          2.6138941713       -0.4954141318        0.5057275810
 C          3.9894087765       -0.5097074797        0.3899639764
 C          4.5903890184       -0.2917954573       -0.8488003471
 C          6.0622471219       -0.3382824462       -1.0300923557
 O          6.5643906379       -0.7235368563       -2.0697594008
 C          6.8940420436        0.1064971796        0.1175722545
 C          8.1275571163       -0.5053642993        0.3302481745
 C          8.9349219217       -0.1037518370        1.3773515821
 C          8.5280904926        0.9279673143        2.2082283290
 C          7.3142020466        1.5591082681        1.9870916265
 C          6.4957271133        1.1505833226        0.9502441102
 C          3.7827533778       -0.0722688817       -1.9638004826
 C          2.4091351874       -0.0503904989       -1.8429835644
 H         -0.6296185335       -2.9244303346       -2.2297096132
 H          0.0324144307       -1.6201478857       -3.2049877160
 H          1.0268901772       -2.3633728597       -1.9522748906
 H         -2.5471368673       -1.5604632115       -1.5940568517
 H         -3.2291698481       -2.5999201264        0.9214657006
 H         -5.0261226181       -4.1131276542        1.6931974089
 H         -7.3622222189       -3.3833888594        1.7220545165
 H         -7.9873251654       -1.1088437723        0.9851675404
 H         -7.9807386088        1.4933013897        0.0223124503
 H         -7.3448530572        3.7022520684       -0.8853407735
 H         -5.0106364782        4.2152003376       -1.4132301729
 H         -3.2247995784        2.5492323062       -1.0372612108
 H         -2.5174540528        2.5660036880        1.2970775860
 H         -1.3569546030        1.9177952655        2.4611415473
 H         -2.9530382847        1.1658005723        2.2699248060
 H          0.4609174378        1.2385610029        1.0810158699
 H          2.1518356097       -0.6807615196        1.4647349429
 H          4.6003468995       -0.7158509603        1.2566428081
 H          8.4328921881       -1.3004175737       -0.3339726796
 H          9.8852997757       -0.5895830301        1.5414051683
 H          9.1605036566        1.2466115390        3.0235033199
 H          7.0042320248        2.3722971983        2.6269985852
 H          5.5553913195        1.6523194018        0.7714639289
 H          4.2561221983        0.0873248684       -2.9211966790
 H          1.7949232434        0.1449434759       -2.7089378174
