106
 energy: -152.671947498296 gnorm: 0.000098110221 xtb: 6.7.1 (edcfbbe)
C           -4.67631015591413        4.70517504144798        4.07582722777726
C           -3.66795599160110        4.18108449921391        3.04969546955346
C           -3.37707174647729        5.31120272134382        2.04711288589455
C           -2.37436733259600        3.81321042488728        3.79600570964947
C           -4.16600550608542        2.96861736734947        2.29611364553528
C           -5.44325063394681        2.39072554090135        2.51382577528634
C           -5.88891340595714        1.30809659940037        1.81943285773085
C           -5.04877845297686        0.71558322226995        0.82175986920006
C           -3.74402277134799        1.31098538679717        0.59657026498392
C           -3.32517964755979        2.38058088229639        1.31273909266374
C           -3.01364214744556        0.54826119972755       -0.49331966731474
C           -2.81098587019622        1.36025281232899       -1.75299997521003
C           -3.61291107966897        2.45721667415214       -2.04857311979223
C           -3.43809784289787        3.11853885953487       -3.25250043241855
C           -2.47132701633487        2.65036568284417       -4.12818342722708
N           -1.70827462482917        1.60270242972607       -3.86342409796953
C           -1.87610943974148        0.97911445128582       -2.71348463562908
C           -1.71633881658023        0.01517018366104        0.07799341704858
C           -0.57687694098893        0.82700142179586        0.08497674730790
C            0.61525647084694        0.40779316953126        0.63848511053388
C            0.66779743743604       -0.86319837787564        1.19101095032196
C           -0.48455250065278       -1.67939902312189        1.22845554732586
C           -1.67554956405399       -1.23415923081645        0.67484627515480
C           -0.10660533060976       -2.88636751205101        1.90914875104321
C           -0.78665023792904       -4.05326048612512        2.23000680745955
C           -0.10237416736483       -5.05784513321419        2.88487688817399
C            1.24582303590119       -4.91528910391328        3.20512564016897
C            1.94411485145534       -3.76381741961111        2.89466611758484
C            1.25570494298258       -2.74144078632690        2.25814648341203
N            1.71180915044074       -1.51366242057613        1.81710120778402
C            3.01564795163306       -1.02376344353011        1.96590728457889
C            3.62604154479670       -1.03146529607024        3.21751251252476
C            4.91874897072414       -0.55964878170269        3.35263645288634
C            5.60880501717366       -0.07104800714587        2.25873245668337
C            5.00502969574453       -0.06628104521206        1.00297296327359
N            5.70981750834608        0.40133143456160       -0.11217376785700
C            6.99212149499284        0.02517944324692       -0.46733916501024
C            7.83990721824405       -0.89922757907714        0.12555822376504
C            9.07597921631991       -1.10795898819603       -0.45601154518427
C            9.46411343648887       -0.42467744720826       -1.60605187923106
C            8.61419803300718        0.47569434034994       -2.21639545750955
C            7.36662672390388        0.70187918488676       -1.65040566624027
C            6.25102803177732        1.52708717242057       -2.02043217386740
C            6.02740172198075        2.41723826939356       -3.06249904588007
C            4.81775281772359        3.07991159425278       -3.11915526082846
C            3.84539058961372        2.87823118825574       -2.14273007764735
C            4.04827405167517        2.00075560104370       -1.09506468135465
C            5.24908955110721        1.30880860721091       -1.04785540155637
C            3.70778413352443       -0.54585934969996        0.85891423980277
C           -4.02112502267031       -0.53524216696602       -0.82810046573833
C           -3.92097404425998       -1.53609145904717       -1.73455327802408
C           -4.98748047318031       -2.45597925544434       -1.91669699022589
C           -4.82167181714441       -3.57324689018617       -2.92117195211928
C           -3.61752246239282       -4.43845589981123       -2.51070386489178
C           -4.56741047903006       -2.96780357826187       -4.31204956676307
C           -6.05030165699972       -4.48221679987024       -3.01560353471371
C           -6.16128823359430       -2.28035371190518       -1.13749526028172
C           -6.29581814104555       -1.28003238146288       -0.22477174118556
C           -5.21669098035070       -0.35955816894494       -0.02350114179431
H           -4.89763209507951        3.95113756326789        4.82768090272949
H           -4.25853090729352        5.57238298194604        4.58357108676894
H           -5.60198645525252        5.01267366843535        3.59467886821901
H           -4.28296920600482        5.57301942033933        1.50405017082997
H           -2.62014212189721        5.01684189566803        1.32547452194734
H           -3.02182414829534        6.19495054500690        2.57301992775487
H           -2.00222652147427        4.67563630110206        4.34524996147708
H           -1.59858722371257        3.48441289380716        3.11018104630909
H           -2.56595673562656        3.00831903798179        4.50259232049094
H           -6.09078673647205        2.82075208752647        3.26107384290451
H           -6.86184874216880        0.88300373208346        2.01313425067133
H           -2.34738373533878        2.79906040299974        1.12743401374278
H           -4.36147734795165        2.78713765168149       -1.34186661992688
H           -4.04280030521230        3.97591211479601       -3.50620414591076
H           -2.29609829720581        3.12784575137889       -5.08324140349312
H           -1.22072990281357        0.13401228972517       -2.54249558023566
H           -0.62792627845047        1.80809495756738       -0.36450876032710
H            1.47512899574902        1.05932159512177        0.64989499198462
H           -2.55760707959212       -1.85535594789124        0.70880251574627
H           -1.82721804522443       -4.16793904290499        1.96649002328096
H           -0.61256929003428       -5.97277915308678        3.14663757110966
H            1.75855555751376       -5.72446544037490        3.70386870872911
H            2.99345982741437       -3.67103144852343        3.13085394860261
H            3.07913863908573       -1.39123447299003        4.07532132171609
H            5.38843249236131       -0.55836924051632        4.32479887587587
H            6.60768334092944        0.32109286124498        2.37113031326380
H            7.54289765647394       -1.44992480939424        1.00536969423351
H            9.75466195680830       -1.82027091562767       -0.01039943850984
H           10.44000303862751       -0.61331377639045       -2.02801453601237
H            8.90641832895373        0.99221986562692       -3.11816098973173
H            6.78887351867344        2.58600013727397       -3.80885237421475
H            4.62124101163842        3.77195266947412       -3.92425644772398
H            2.91333568207099        3.42020891462962       -2.20410421365308
H            3.29709738249215        1.87120779669659       -0.33182630593069
H            3.24856030904158       -0.57672532235458       -0.11755479608948
H           -3.01906614806816       -1.63874805944778       -2.31912129734418
H           -2.70144053324386       -3.85542533133020       -2.47880074985922
H           -3.48132686124907       -5.25000167825582       -3.22237553270247
H           -3.78285558731809       -4.86770282872897       -1.52448316532079
H           -4.44874606843066       -3.76069408825680       -5.04756474657167
H           -5.40812102582931       -2.34371786194197       -4.60820551622829
H           -3.67008314665780       -2.35567543840248       -4.32303792839155
H           -5.86726393402371       -5.26221553802138       -3.75205596779701
H           -6.25678649981969       -4.96363041481252       -2.06237037874990
H           -6.92813438089841       -3.92301437316086       -3.33125108005302
H           -6.98394049670257       -2.96435253196591       -1.27163004067357
H           -7.20199795629361       -1.16785044608315        0.35071725017614
