106
 energy: -152.775438202120 gnorm: 0.000060633390 xtb: 6.7.1 (edcfbbe)
C           -5.26575011323552        5.45268622670738        2.11585549141742
C           -4.32850152319908        4.73936895985086        1.13775928644676
C           -4.54766944104749        5.34037787490321       -0.25830373084481
C           -2.88369121770524        4.99105859714242        1.59241944839230
C           -4.57235204240517        3.23967482911129        1.07192887569184
C           -5.56084369946571        2.60120255937362        1.81381445149043
C           -5.76700743081777        1.23221351954814        1.73635957902807
C           -4.96902607271202        0.47843585290938        0.89608591309717
C           -3.97214511997366        1.10952179711590        0.13986940198146
C           -3.77261394283289        2.46658632919433        0.22668563645885
C           -3.21399935850221        0.09839449522811       -0.69962303610833
C           -3.39916458989027        0.30053849162978       -2.18557246655591
C           -4.48502746636240        0.99811709875999       -2.70139307763193
C           -4.63628307515769        1.09456145373803       -4.07482885937125
C           -3.69882571401634        0.47694764188323       -4.88708961787157
N           -2.66703299059862       -0.19842257211409       -4.40983264873426
C           -2.52487500990913       -0.28246717786019       -3.10082755726286
C           -1.75649077086971        0.12770030412381       -0.28436310003513
C           -0.89744223494527        1.07466617896380       -0.85206380420693
C            0.42195089960999        1.19394775639283       -0.46422443104178
C            0.88804266852085        0.34558077398394        0.52915439316371
C            0.03930250135485       -0.62955028928451        1.09706272842840
C           -1.28541439275956       -0.72689943626254        0.69696264833654
C            0.83502786119829       -1.36668971748736        2.03759415984495
C            0.56047216919397       -2.42123541556188        2.89794865259342
C            1.57365505105399       -2.89601183383004        3.70637578815166
C            2.84141075229294       -2.31973551565327        3.67671767785675
C            3.13618147961612       -1.26898592280380        2.82955457803173
C            2.13187532216906       -0.80586639272254        1.99286680708495
N            2.15109855499383        0.22994968613622        1.07824239805811
C            3.25247659273104        1.03303068012249        0.75862094210573
C            3.12183051888745        2.41990213937121        0.74400477854414
C            4.20454337316311        3.20921956255399        0.40340151216140
C            5.42325333838616        2.63635227753147        0.08997011221363
C            5.56063274553724        1.25052699252044        0.10679108736822
N            6.78841497868365        0.66355336078531       -0.22470147693243
C            7.46614766401639       -0.28026577184484        0.52198527178833
C            7.14962536446860       -0.82339967825716        1.75801998521938
C            8.02480966799477       -1.74111700952718        2.30589037256846
C            9.19758444106970       -2.10708799802356        1.64952312907118
C            9.53295631591918       -1.54926270482725        0.43204273939060
C            8.66731460322433       -0.62542411541452       -0.13843817994007
C            8.70656945762489        0.15118561218855       -1.34589806009299
C            9.61103260988895        0.23857745898511       -2.39593347598163
C            9.32937999127291        1.09425091168270       -3.44190363695193
C            8.15603654863534        1.84501916591064       -3.45690489170793
C            7.24098519775847        1.77506851849051       -2.42390113077085
C            7.53075840947929        0.93563583859701       -1.35808819578064
C            4.47282622292646        0.44993369594489        0.43633806607462
C           -3.92191180165884       -1.19050454799216       -0.32260977281196
C           -3.66917466670043       -2.46280661130151       -0.78725772618243
C           -4.43106709562550       -3.53220603848430       -0.32178430002426
C           -4.19164365194193       -4.96194979234723       -0.78148156935238
C           -3.06095503098829       -5.06958302556194       -1.80836881422513
C           -5.47443480516994       -5.50532791542328       -1.42642606927993
C           -3.81560274254136       -5.82036541298629        0.43497564077804
C           -5.44225872152830       -3.27253055914364        0.60399005183935
C           -5.70876874682318       -1.99745065728687        1.06876048527388
C           -4.94192539722937       -0.94320708138193        0.60241909889921
H           -5.13530519056053        5.07616963225755        3.12779448622871
H           -5.04004030218226        6.51728672228194        2.12211966080497
H           -6.30576330723231        5.33293589043835        1.82112501129150
H           -5.56591610037839        5.15172096215120       -0.59282921826368
H           -3.86514955418756        4.91150297749976       -0.98698668241724
H           -4.38708386780307        6.41620929599603       -0.23316524048451
H           -2.69323205015621        6.06023663819812        1.66009057872400
H           -2.16717037156293        4.56076222245957        0.89819453977416
H           -2.71600806803480        4.54712132788350        2.57164594714131
H           -6.19464783059346        3.16986631689132        2.47453881977292
H           -6.54243813612507        0.76651135963998        2.32669510679979
H           -2.99581447836643        2.92663226721600       -0.36483003637495
H           -5.20100639044930        1.46055650037888       -2.03677966188913
H           -5.46697779797912        1.63468926593686       -4.50286795517662
H           -3.77181743032176        0.51950358522827       -5.96593739088236
H           -1.65876089438932       -0.83755345805287       -2.76266435583212
H           -1.27108958293324        1.72361437363161       -1.63088486660560
H            1.06882788370227        1.91886930127273       -0.93467735001868
H           -1.93287553175584       -1.46544134054271        1.14403305086887
H           -0.42843613724841       -2.85305327493009        2.93254931826308
H            1.38324401665316       -3.71793770887707        4.38022195618717
H            3.61052337339050       -2.69967443920542        4.33280007748554
H            4.11530589000412       -0.81642313032910        2.83288156799024
H            2.17857142898828        2.86882371600880        1.01425004715206
H            4.10178218596742        4.28400242698788        0.39764297551395
H            6.27448572765361        3.25324470418938       -0.15325781772164
H            6.25620722261294       -0.52760905176084        2.28574868694969
H            7.79663117136009       -2.18029963104746        3.26587211547846
H            9.85570069071519       -2.82950067342044        2.10883990528515
H           10.45092943088302       -1.81872848821839       -0.06807631784520
H           10.51228283655108       -0.35568991000126       -2.39146930453415
H           10.02072475674964        1.17942075664995       -4.26700227113087
H            7.95499150018015        2.49385504000219       -4.29662339170682
H            6.32607886840806        2.34750780645324       -2.45366011901585
H            4.56822448375226       -0.62509430542938        0.41177179924768
H           -2.87717327117585       -2.61061202141621       -1.50253202054403
H           -2.11634400801270       -4.73011685441218       -1.38938072231277
H           -3.28480777631799       -4.48907055160772       -2.70052987660260
H           -2.94059978764221       -6.10944427151396       -2.10582168056452
H           -5.31322798463293       -6.52094660077640       -1.78177692601364
H           -6.30019322419516       -5.51998833041850       -0.72054047807968
H           -5.76019166134046       -4.88453622151462       -2.27316593563026
H           -3.62786967219290       -6.84640300861615        0.12565860786513
H           -2.91407909540594       -5.43163675947439        0.90437564751824
H           -4.60983417595444       -5.82832615114541        1.17642496904109
H           -6.04438331058883       -4.08719050986669        0.97770163933247
H           -6.50056791294191       -1.83120284506911        1.78430954578340
