80
 energy: -122.352252520999 gnorm: 0.000138234601 xtb: 6.7.1 (edcfbbe)
C            9.90035492337781        0.69473887099081        0.30051335714156
C            8.49129145294966        0.51408532048815        0.85255644622623
C            7.65099007359284        1.79069411305792        0.78708289234175
C            7.42159167502996        2.34749526579737       -0.61987589264484
C            6.74626325418052        1.38538413050625       -1.59866006109526
C            5.33145552130105        0.99734178420860       -1.17923612024732
O            4.54658421574152        2.17122885762926       -1.14494671861173
C            3.25897089916181        2.09424695785982       -0.72119672273217
C            2.57627820659307        3.31996773059206       -0.66782085697097
C            1.25953116722163        3.38938460781420       -0.27705169745074
C            0.60543373209500        2.22003281827081        0.09206755925414
C           -0.73410419499877        1.92238070942451        0.51588373796938
C           -1.85727956430183        2.69551765005061        0.76026906266152
C           -3.01905083686193        2.08946390289547        1.19891572283012
C           -3.06884272328922        0.70955113149849        1.41850624123651
O           -4.15122377256841        0.02537841187884        1.88488671185348
C           -5.36728951755228        0.70118689337211        2.12587949435841
C           -6.14910999166450        0.99364230664175        0.84311853225842
C           -7.45424159147863        1.72407289371099        1.14777176828589
C           -8.31592684447365        1.95767474674963       -0.09346229573390
C           -7.71108955572070        2.95932709283233       -1.07539387013663
C           -8.65555013974547        3.24165091940741       -2.23756321159798
C           -1.94579931052957       -0.08297729455575        1.18026471814933
C           -0.79683840901358        0.52489389192783        0.71462836032893
N            0.44587071169700       -0.02781783446547        0.44111938683621
C            0.77846154932190       -1.37372256670430        0.53783366615506
C            1.95841242576922       -1.78382997937753        1.16160786071262
C            2.23555009921259       -3.13851083717461        1.21725096300521
N            1.44273607142202       -4.06965680784275        0.72375378911611
C            0.31315033584751       -3.68937112568915        0.13699337531438
C           -0.54383359549188       -4.76219389273534       -0.40205153902344
C           -1.16799159245129       -4.63301238287281       -1.64090566279274
C           -1.95732949492843       -5.64167842049652       -2.16196669129441
C           -2.13351255948559       -6.80343127442374       -1.43589601722653
F           -2.89553222969003       -7.78285676183450       -1.93948398166459
C           -1.53597910247522       -6.97864303829631       -0.18524588304082
C           -1.73174766082333       -8.16827388246356        0.55735702661032
N           -1.89642111907381       -9.13209617499703        1.15193835792824
C           -0.74013432236703       -5.94247256595151        0.31174236843961
F           -0.19768515910624       -6.09534545188126        1.52064114750269
C           -0.05986740677531       -2.35521994854876        0.01107731347302
C            1.30308274279774        0.99615347475132        0.06479685863543
C            2.62087305074947        0.91364256880192       -0.36091406598701
H           10.39953524293752        1.52351199817996        0.79795064569793
H            9.88001148592664        0.89567213629049       -0.76742350426471
H           10.48770534660222       -0.20616964846891        0.46378061052432
H            7.98945487911654       -0.29153265198312        0.31298474368096
H            8.55991322314857        0.20777138555724        1.89953292013665
H            6.68659288727957        1.60085529331458        1.26296188031865
H            8.14994210036764        2.56516259176972        1.37503294160192
H            8.37806651307059        2.65440600892992       -1.04578169628112
H            6.79702664066645        3.23868015694029       -0.53642931989738
H            7.33459858693031        0.47425853249127       -1.71043121280269
H            6.68725299289962        1.87139088410000       -2.57431054663626
H            5.34228799442743        0.51836102624318       -0.19152213174566
H            4.91341155526555        0.28447865518232       -1.90535497119051
H            3.11911726941725        4.20529148198527       -0.95754960223011
H            0.74093286270432        4.33525055002944       -0.25955270159199
H           -1.82681596339093        3.76434912955823        0.61436678992739
H           -3.88331500934834        2.70601502972393        1.38521208717121
H           -5.19476025056650        1.62424041539606        2.69341891021956
H           -5.93888700372622        0.01574883771183        2.75870793867687
H           -6.36198110694558        0.04683816681056        0.34256706251152
H           -5.52911441085061        1.59114019775382        0.17358717233926
H           -7.23099563094181        2.68566098493246        1.61681919701207
H           -8.02592865814125        1.13256667413559        1.86714610951276
H           -8.47974149920045        1.00556674373447       -0.60309367666749
H           -9.29136501545776        2.33143112266078        0.22716081917263
H           -6.76988450927915        2.57171573481832       -1.46858800759018
H           -7.49522650331631        3.89256346488912       -0.54986154071421
H           -9.59461631688340        3.65472602299095       -1.87558766991900
H           -8.21107652240990        3.95419418621868       -2.92847528259286
H           -8.87338584632450        2.32558557153950       -2.78236271076224
H           -2.00773016563878       -1.13848553331940        1.38990975246543
H            2.61974942286858       -1.06273325047891        1.61393947877584
H            3.13754502403499       -3.50277794646322        1.69022388068742
H           -1.01488795235697       -3.73140635369633       -2.21322415608344
H           -2.43394572867183       -5.54219409382076       -3.12383136093936
H           -0.97873731995344       -2.08018589825295       -0.48121228339012
H            3.11874897255918       -0.03997541826400       -0.42749699548200
