80
 energy: -122.277857038397 gnorm: 0.000093370294 xtb: 6.7.1 (edcfbbe)
C            2.02153494919473        5.08340721277641       -0.99024105474259
C            3.30557188041305        5.05899709985323       -0.17068324317046
C            3.87122484436089        3.64613996281301       -0.04058021877877
C            5.17738222181137        3.63127935699141        0.75454221572782
C            5.68452991665658        2.22428501162082        1.07110489632875
C            6.26459519874264        1.50803209040208       -0.15369924453764
O            6.47905880946839        0.12912660344251        0.08532878960979
C            5.42352323282707       -0.71062062035381        0.12983673850153
C            5.73584562407515       -2.04357511565529        0.48769020857454
C            4.76333345023633       -3.00179794427391        0.60287132002449
C            3.43410707704388       -2.65378004359901        0.34431734229495
C            2.19447870041559       -3.34326445364172        0.41353268174130
C            1.82143912799732       -4.64815251629871        0.75189760202315
C            0.49519820953769       -4.98745538379989        0.72548732674805
C           -0.50286372354450       -4.05318990211672        0.35387354512887
O           -1.75843653845667       -4.52573651613749        0.38976133375080
C           -2.85678206555184       -3.69031656175999        0.05815713395783
C           -3.03162215163377       -3.54821453089696       -1.45616820725520
C           -4.34704822020811       -2.87149824292399       -1.83633129729371
C           -4.45302068617267       -1.41837362259945       -1.37436555893896
C           -5.66750533470348       -0.73050688096915       -1.99585804668895
C           -5.84535583740627        0.69326827455698       -1.48508069546998
C           -0.15088346958732       -2.75098681665196        0.00053078123666
C            1.18671972846542       -2.40577435357908        0.04976822689928
N            1.77689341759260       -1.19448214215348       -0.24106800233338
C            1.10338458641183       -0.04410812673852       -0.67594972170603
C            1.60330807816233        0.69158068525687       -1.79458260813931
C            0.89709205334937        1.81402630346336       -2.15280213227633
N           -0.19245751400517        2.20366912194381       -1.54066703750863
C           -0.76306250482671        1.49449328733219       -0.51637441531017
C           -1.99614866021454        1.96451363295398        0.00942747044917
C           -2.46940064077550        3.25662294021515       -0.36337760457290
C           -3.65227320341330        3.76794244072760        0.10555315284100
C           -4.43847805213541        3.01430609599810        0.96301690860315
F           -5.60522490203813        3.51417553896034        1.42587375524330
C           -4.04867807872280        1.71490393746721        1.33630955353522
C           -4.86925727017654        0.89978888900515        2.14380725165166
N           -5.53142491434799        0.21621926673239        2.78375403623837
C           -2.84537812977046        1.22556220773147        0.85349862225402
F           -2.52853178892385       -0.05139449472091        1.19071417882732
C           -0.04680750313448        0.36925810709860       -0.05342005564845
C            3.13334397138117       -1.32194672891299       -0.05755095937446
C            4.10976258927141       -0.34656280838669       -0.15117394103334
H            1.61680264140047        6.09145286206540       -1.03452104706838
H            1.27170965977637        4.43028332127760       -0.54946811305731
H            2.21142129917378        4.74658702818504       -2.00702075297179
H            4.05097565841192        5.70395504888280       -0.64179026974063
H            3.10648828943883        5.45747928305825        0.82642596960941
H            3.13179303944257        3.01594213744686        0.46082219839858
H            4.03275201469472        3.24084977818021       -1.04219468311257
H            5.01016733031043        4.15268175226594        1.69933300179393
H            5.94582224588225        4.18125193059770        0.20680106282822
H            4.86566310826062        1.62864717117599        1.48079983303211
H            6.46210265415162        2.27690702685797        1.83534683337867
H            7.25550081748059        1.90546366090964       -0.38731657364808
H            5.62413928152961        1.64576495510828       -1.03144586228336
H            6.77117781671675       -2.27126128181238        0.68317388360879
H            5.01431771154982       -4.00850310454545        0.89774319391530
H            2.57061811643135       -5.37147658974453        1.03302810140872
H            0.16636831075314       -5.97975070431585        0.98859437394097
H           -2.75880708805385       -2.71506612620434        0.54381125836671
H           -3.72485233896658       -4.20436945244783        0.47925240678391
H           -3.00382627224416       -4.55055051723346       -1.89052786388332
H           -2.19647611913067       -2.98374863989438       -1.87628739401989
H           -5.18107555324435       -3.44180292691707       -1.42225093873070
H           -4.43758321071926       -2.89968762806395       -2.92509213823447
H           -4.53992656511311       -1.37875526878986       -0.28735809604850
H           -3.54874863329183       -0.87437776709656       -1.66054599104932
H           -6.56379709729395       -1.30989495033072       -1.76420091007766
H           -5.55382582583543       -0.71565547579594       -3.08275071070579
H           -4.94870836714190        1.28297029699516       -1.66862129709297
H           -6.68215195102457        1.17667543391843       -1.98354906707091
H           -6.04409070264284        0.68888831107844       -0.41599726615132
H           -0.88956829699426       -2.02820176822209       -0.30002358615095
H            2.46880436508756        0.36545646424776       -2.34390134541522
H            1.21791740457031        2.43358764040959       -2.98030753657502
H           -1.85233646809287        3.82837546716878       -1.03790826724715
H           -3.98938970539824        4.75071741694033       -0.18352265085252
H           -0.38254805480616       -0.13808875854381        0.83473882794999
H            3.83715006632098        0.66062056997233       -0.41595619683188
