  80
       -122.36600417
 C          2.3258815167        5.1088230599       -1.3066666533
 C          3.5649584116        5.0466960901       -0.4226460391
 C          4.0400849285        3.6115241089       -0.2089414529
 C          5.3170809312        3.5565124376        0.6303805885
 C          5.7421244024        2.1357729735        1.0019144379
 C          6.3045520006        1.3484277189       -0.1869393716
 O          6.4866782287       -0.0206820335        0.1065651576
 C          5.3965089708       -0.8356322165        0.1805518657
 C          5.6661303151       -2.1570459338        0.5692703041
 C          4.6605249641       -3.0874235140        0.7027909422
 C          3.3512230777       -2.7084757096        0.4309936492
 C          2.0799592439       -3.3741502988        0.5059215293
 C          1.6859709158       -4.6692498462        0.8221307290
 C          0.3500454707       -4.9914181661        0.7648773917
 C         -0.6185394299       -4.0488816973        0.3811451555
 O         -1.8942285481       -4.5154876291        0.3673954873
 C         -2.9568050682       -3.6678076009       -0.0260867023
 C         -3.0452330695       -3.5115086778       -1.5467419165
 C         -4.3225453226       -2.8066854630       -2.0005996552
 C         -4.4251923363       -1.3575369408       -1.5259282597
 C         -5.5849864981       -0.6271195765       -2.2002740728
 C         -5.7497028141        0.7942887234       -1.6765949346
 C         -0.2433357223       -2.7495945500        0.0624567284
 C          1.1018694941       -2.4259147695        0.1468541585
 N          1.7262472769       -1.2234348321       -0.1619220869
 C          1.0912965189       -0.0672423821       -0.5881092546
 C          1.5690069385        0.6703826648       -1.6724882565
 C          0.8775089075        1.8116699848       -2.0399718703
 N         -0.2258917136        2.2252947313       -1.4491674185
 C         -0.7044144103        1.5162093652       -0.4251597822
 C         -1.9548339281        2.0343848918        0.1559653659
 C         -2.2602200843        3.3892299936        0.0047924423
 C         -3.4282819607        3.9332213640        0.4999779649
 C         -4.3294489392        3.1156725750        1.1559370794
 F         -5.4654198090        3.6346843562        1.6366527054
 C         -4.0808333324        1.7519102565        1.3199456555
 C         -5.0120142260        0.8988861739        1.9596938053
 N         -5.7623530345        0.1982330325        2.4659451958
 C         -2.8861198690        1.2362936728        0.8117386765
 F         -2.6807881216       -0.0830726538        0.9570866014
 C         -0.0607166356        0.3837029768        0.0589390993
 C          3.0924684271       -1.3902245268        0.0073255562
 C          4.0958534972       -0.4412242298       -0.1068268616
 H          1.9817586579        6.1344368569       -1.4095397172
 H          1.5200329965        4.5153788336       -0.8810095308
 H          2.5463169966        4.7225082198       -2.2992654014
 H          4.3674687267        5.6275840233       -0.8822797988
 H          3.3436057090        5.4984145356        0.5467009948
 H          3.2495197553        3.0472414252        0.2935684386
 H          4.2103861444        3.1516937103       -1.1848439101
 H          5.1477885824        4.1160271051        1.5533068307
 H          6.1286097326        4.0494077388        0.0900900956
 H          4.8884513524        1.5973694289        1.4194052889
 H          6.5103471663        2.1740831063        1.7765816377
 H          7.3050248160        1.7136720717       -0.4349649393
 H          5.6710234413        1.4656353664       -1.0740227972
 H          6.6926892432       -2.4152737077        0.7738868933
 H          4.8835245310       -4.0931514607        1.0230508577
 H          2.4183589912       -5.4106119048        1.1012773777
 H          0.0073597211       -5.9850510692        1.0049619927
 H         -2.8787121772       -2.6961821700        0.4720718387
 H         -3.8558498796       -4.1715852269        0.3403614410
 H         -3.0115913835       -4.5117314569       -1.9850663258
 H         -2.1753923030       -2.9636478919       -1.9154660875
 H         -5.1908911509       -3.3635487600       -1.6422230223
 H         -4.3488996378       -2.8207284087       -3.0931348430
 H         -4.5719205044       -1.3352710231       -0.4448704666
 H         -3.4921690055       -0.8335625223       -1.7525907310
 H         -6.5084306357       -1.1825868369       -2.0250592244
 H         -5.4141834847       -0.5985212342       -3.2789458274
 H         -4.8288986329        1.3615982610       -1.8078282319
 H         -6.5467832050        1.3081562279       -2.2085012668
 H         -6.0027303008        0.7796025374       -0.6185168884
 H         -0.9663931658       -2.0146442622       -0.2483007298
 H          2.4360011801        0.3438138177       -2.2231961328
 H          1.2130840953        2.4205075933       -2.8688675702
 H         -1.5516332399        4.0023352501       -0.5284758673
 H         -3.6556789235        4.9801693942        0.3806549142
 H         -0.4069366896       -0.1330423921        0.9378283629
 H          3.8555279026        0.5699030306       -0.3891785634
