  63
       -106.15490300
 N          2.0100128615        3.6284311860       -0.8418583364
 C          1.5833824911        2.6279135691       -0.4783097788
 C          1.0100823797        1.3930180746       -0.0975563161
 C         -0.3748528927        1.2657468199       -0.1577738642
 C         -0.9791268236        0.0392027261        0.0823517485
 C         -2.4374724083       -0.0809459616        0.0339525722
 N         -3.1413993176        1.0158555957       -0.2233503212
 C         -4.4639495409        0.8638309763       -0.2515144224
 C         -5.2843881835        2.0391939894       -0.5390937423
 C         -6.6736735131        1.9320497196       -0.5730150337
 C         -7.4461804640        3.0436285884       -0.8471284632
 C         -6.8421604230        4.2678032914       -1.0895454747
 C         -5.4607263042        4.3797600323       -1.0571643292
 C         -4.6821762349        3.2723039784       -0.7832691342
 N         -5.0806402430       -0.2936745870       -0.0327753816
 C         -4.2980106570       -1.3393050440        0.2153152096
 C         -4.9331330760       -2.6334264636        0.4594333891
 C         -6.3227864089       -2.7391824042        0.4790585002
 C         -6.9195377301       -3.9631664522        0.7103459197
 C         -6.1383626931       -5.0887536626        0.9227902544
 C         -4.7556631761       -4.9888531661        0.9039749664
 C         -4.1523110926       -3.7679294358        0.6739073963
 N         -2.9684207314       -1.2779827139        0.2557878960
 C         -0.1838524271       -1.0771272948        0.3501460893
 C          1.1867245824       -0.9592915817        0.4234327074
 C          1.8005706429        0.2778047993        0.2355994118
 N          3.1848608355        0.3753718649        0.3430352466
 C          3.9475964108        1.3990667590        0.9100004422
 C          3.5717392242        2.5001505328        1.6565045688
 C          4.5752937746        3.3302634055        2.1305207302
 C          5.9158936216        3.0641223435        1.8878818728
 C          6.3085981316        1.9366165021        1.1848553580
 C          5.3146568146        1.1039943151        0.7092877734
 N          5.3560320729       -0.1001393789        0.0424744544
 C          6.1772395211       -1.0620058840       -0.5013034151
 C          7.5478569026       -1.1876525367       -0.6217975766
 C          8.0231383274       -2.3263948057       -1.2457874174
 C          7.1579986922       -3.3050200936       -1.7317270995
 C          5.7869161705       -3.1876249479       -1.6154546014
 C          5.2836840340       -2.0536668647       -0.9943218016
 N          3.9699661867       -1.6998775812       -0.7518324707
 C          4.0641359372       -0.5522243670       -0.1497619424
 H         -0.9863632202        2.1189910367       -0.4072744822
 H         -7.1257553037        0.9713734576       -0.3832275246
 H         -8.5226895729        2.9590002210       -0.8733814035
 H         -7.4486944816        5.1354780093       -1.3043522116
 H         -4.9920952534        5.3341969656       -1.2468968684
 H         -3.6062448651        3.3419005544       -0.7546534058
 H         -6.9140977634       -1.8531715530        0.3098796264
 H         -7.9965556469       -4.0439336314        0.7242805995
 H         -6.6076656423       -6.0449794778        1.1024786511
 H         -4.1491968992       -5.8673044098        1.0690193902
 H         -3.0782035292       -3.6714508987        0.6567604081
 H         -0.6651191621       -2.0289574190        0.5069171089
 H          1.8082139960       -1.8183286173        0.6198826228
 H          2.5374602876        2.7094619364        1.8766606553
 H          4.3036112152        4.2014435103        2.7056467383
 H          6.6680449977        3.7375582120        2.2683839572
 H          7.3496594692        1.7094963532        1.0217407923
 H          8.2187950403       -0.4300242808       -0.2471793755
 H          9.0884497565       -2.4598530552       -1.3595542158
 H          7.5750568434       -4.1773187180       -2.2128404092
 H          5.1176308611       -3.9435632293       -1.9927093842
