  63
  -105.753271677300       0.350664039081642      !
 N          2.0100128615        3.6284311860       -0.8418583364
 C          1.5833824911        2.6279135691       -0.4783097788
 C          1.0100823797        1.3930180746       -0.0975563161
 C         -0.3748528927        1.2657468199       -0.1577738642
 C         -0.9791268236        0.0392027261        0.0823517485
 C         -2.4374724083       -0.0809459616        0.0339525722
 N         -3.1413993176        1.0158555957       -0.2233503212
 C         -4.4639495409        0.8638309763       -0.2515144224
 C         -5.2843881835        2.0391939894       -0.5390937423
 C         -6.6736735131        1.9320497196       -0.5730150337
 C         -7.4461804640        3.0436285884       -0.8471284632
 C         -6.8421604230        4.2678032914       -1.0895454747
 C         -5.4607263042        4.3797600323       -1.0571643292
 C         -4.6821762349        3.2723039784       -0.7832691342
 N         -5.0806402430       -0.2936745870       -0.0327753816
 C         -4.2980106570       -1.3393050440        0.2153152096
 C         -4.9331330760       -2.6334264636        0.4594333891
 C         -6.3227864089       -2.7391824042        0.4790585002
 C         -6.9195377301       -3.9631664522        0.7103459197
 C         -6.1383626931       -5.0887536626        0.9227902544
 C         -4.7556631761       -4.9888531661        0.9039749664
 C         -4.1523110926       -3.7679294358        0.6739073963
 N         -2.9684207314       -1.2779827139        0.2557878960
 C         -0.1838524271       -1.0771272948        0.3501460893
 C          1.1867245824       -0.9592915817        0.4234327074
 C          1.8005706429        0.2778047993        0.2355994118
 N          3.1848608355        0.3753718649        0.3430352466
 C          3.9475964108        1.3990667590        0.9100004422
 C          3.5717392242        2.5001505328        1.6565045688
 C          4.5752937746        3.3302634055        2.1305207302
 C          5.9158936216        3.0641223435        1.8878818728
 C          6.3085981316        1.9366165021        1.1848553580
 C          5.3146568146        1.1039943151        0.7092877734
 N          5.3560320729       -0.1001393789        0.0424744544
 C          6.1772395211       -1.0620058840       -0.5013034151
 C          7.5478569026       -1.1876525367       -0.6217975766
 C          8.0231383274       -2.3263948057       -1.2457874174
 C          7.1579986922       -3.3050200936       -1.7317270995
 C          5.7869161705       -3.1876249479       -1.6154546014
 C          5.2836840340       -2.0536668647       -0.9943218016
 N          3.9699661867       -1.6998775812       -0.7518324707
 C          4.0641359372       -0.5522243670       -0.1497619424
 H         -0.9863632202        2.1189910367       -0.4072744822
 H         -7.1257553037        0.9713734576       -0.3832275246
 H         -8.5226895729        2.9590002210       -0.8733814035
 H         -7.4486944816        5.1354780093       -1.3043522116
 H         -4.9920952534        5.3341969656       -1.2468968684
 H         -3.6062448651        3.3419005544       -0.7546534058
 H         -6.9140977634       -1.8531715530        0.3098796264
 H         -7.9965556469       -4.0439336314        0.7242805995
 H         -6.6076656423       -6.0449794778        1.1024786511
 H         -4.1491968992       -5.8673044098        1.0690193902
 H         -3.0782035292       -3.6714508987        0.6567604081
 H         -0.6651191621       -2.0289574190        0.5069171089
 H          1.8082139960       -1.8183286173        0.6198826228
 H          2.5374602876        2.7094619364        1.8766606553
 H          4.3036112152        4.2014435103        2.7056467383
 H          6.6680449977        3.7375582120        2.2683839572
 H          7.3496594692        1.7094963532        1.0217407923
 H          8.2187950403       -0.4300242808       -0.2471793755
 H          9.0884497565       -2.4598530552       -1.3595542158
 H          7.5750568434       -4.1773187180       -2.2128404092
 H          5.1176308611       -3.9435632293       -1.9927093842
  63
  -105.752656555300       0.182894536640756      !
 N          2.0174622782        3.6824818627       -0.1473521335
 C          1.5878457017        2.6362465936        0.0418859831
 C          1.0119603279        1.3562220225        0.2113659609
 C         -0.3726926131        1.2418178288        0.1260687900
 C         -0.9782008367       -0.0060305101        0.1788352940
 C         -2.4362921981       -0.1122929198        0.0901523580
 N         -3.1085453418        0.9608539214       -0.3097437804
 C         -4.4287126042        0.8156045982       -0.4062044386
 C         -5.2103948338        1.9519371015       -0.8900044775
 C         -6.6013615978        1.8764147684       -0.9371483390
 C         -7.3360710195        2.9493408113       -1.4026246987
 C         -6.6922353245        4.1025336459       -1.8244855389
 C         -5.3088940615        4.1825793917       -1.7796132297
 C         -4.5678062119        3.1137399767       -1.3147080124
 N         -5.0743251056       -0.3028820799       -0.0899725591
 C         -4.3239341659       -1.3176271692        0.3273524273
 C         -4.9958590218       -2.5561749521        0.7167329702
 C         -6.3722941833       -2.6902954134        0.5435031007
 C         -7.0054423820       -3.8585977512        0.9201060086
 C         -6.2741577510       -4.8988116158        1.4726781376
 C         -4.9048090377       -4.7700889969        1.6471786805
 C         -4.2647129866       -3.6054100401        1.2709032222
 N         -2.9953534061       -1.2723150194        0.4136809993
 C         -0.1875344266       -1.1514206502        0.2873287117
 C          1.1845130478       -1.0486668073        0.3691056276
 C          1.8002451559        0.2010313299        0.3624510569
 N          3.1873130106        0.2814454736        0.4604979558
 C          3.9583530889        1.2040114995        1.1701072909
 C          3.5960774683        2.1468140140        2.1138584005
 C          4.6057037578        2.9010059687        2.6904442645
 C          5.9389795992        2.7113997673        2.3532966584
 C          6.3195471842        1.7369747742        1.4446299871
 C          5.3196548239        0.9801832267        0.8659549648
 N          5.3494608265       -0.0818611831       -0.0101803756
 C          6.1586890531       -0.9020375493       -0.7636827285
 C          7.5233121676       -0.9650558864       -0.9701132441
 C          7.9860787433       -1.9495170776       -1.8237495110
 C          7.1146246978       -2.8403608629       -2.4474960442
 C          5.7494458725       -2.7849108095       -2.2463146584
 C          5.2584883245       -1.8045152498       -1.3962657070
 N          3.9520821786       -1.5353198620       -1.0340174436
 C          4.0569297227       -0.5199951758       -0.2302529563
 H         -0.9826958277        2.1240525166        0.0075320535
 H         -7.0845307840        0.9712929145       -0.6043384572
 H         -8.4139612849        2.8896590033       -1.4388593016
 H         -7.2692808158        4.9395090142       -2.1896311554
 H         -4.8093645955        5.0815544355       -2.1096668613
 H         -3.4906233858        3.1571017164       -1.2774549617
 H         -6.9242943431       -1.8705624006        0.1114352644
 H         -8.0720598172       -3.9617951951        0.7845643865
 H         -6.7721557935       -5.8107890816        1.7680221173
 H         -4.3377384537       -5.5815428353        2.0792919389
 H         -3.2007323915       -3.4857712191        1.4021963743
 H         -0.6707590588       -2.1152420623        0.3026646359
 H          1.8046645516       -1.9287303032        0.4308432031
 H          2.5676623907        2.2912655556        2.4035533422
 H          4.3453852461        3.6500968523        3.4216509087
 H          6.6959935289        3.3229028802        2.8191594170
 H          7.3562820320        1.5674256392        1.2028514943
 H          8.1988573768       -0.2744554721       -0.4893384541
 H          9.0462097505       -2.0286498146       -2.0121729862
 H          7.5217203858       -3.5924358118       -3.1070755964
 H          5.0752242985       -3.4719736070       -2.7309423357
  63
  -105.752548978600       0.163215689605637      !
 N          2.0168454711        3.6830730250       -0.0412708565
 C          1.5850503869        2.6329466388        0.1187301570
 C          1.0095306819        1.3489065914        0.2559330391
 C         -0.3749523429        1.2340117085        0.1692042646
 C         -0.9780758527       -0.0157537654        0.1970323844
 C         -2.4360582791       -0.1211953100        0.1023267794
 N         -3.1013434266        0.9467152610       -0.3218197540
 C         -4.4210384091        0.8035757592       -0.4275076068
 C         -5.1925138640        1.9300464384       -0.9489743301
 C         -6.5839354418        1.8657660871       -0.9962373502
 C         -7.3075342421        2.9285182213       -1.5007620072
 C         -6.6520538915        4.0598480382       -1.9619928203
 C         -5.2681492787        4.1285685628       -1.9170649894
 C         -4.5381367634        3.0701331584       -1.4127881295
 N         -5.0732919958       -0.3044774253       -0.0894858517
 C         -4.3296265394       -1.3139131631        0.3523014239
 C         -5.0101860671       -2.5400037411        0.7653878937
 C         -6.3902418902       -2.6599154539        0.6113315126
 C         -7.0323580575       -3.8155958502        1.0107948597
 C         -6.3063553263       -4.8577802635        1.5665851187
 C         -4.9334588448       -4.7433281166        1.7219035599
 C         -4.2844865094       -3.5909353813        1.3235413185
 N         -3.0008368712       -1.2738051730        0.4416263975
 C         -0.1861819404       -1.1618288201        0.2836013980
 C          1.1861281556       -1.0584501992        0.3630776611
 C          1.7997536742        0.1919445003        0.3788652350
 N          3.1875937897        0.2728244304        0.4709971748
 C          3.9611046403        1.1689158628        1.2107438879
 C          3.6014038426        2.0811353889        2.1849173011
 C          4.6134661360        2.8112146102        2.7876923589
 C          5.9463454741        2.6278428070        2.4455350717
 C          6.3238967610        1.6850919422        1.5029395454
 C          5.3216523605        0.9526319201        0.8976074349
 N          5.3480625249       -0.0769813151       -0.0165096881
 C          6.1538665995       -0.8684842727       -0.8037035924
 C          7.5178465186       -0.9259961059       -1.0158625183
 C          7.9764683462       -1.8762952561       -1.9095338150
 C          7.1015904874       -2.7393634643       -2.5666674442
 C          5.7370466055       -2.6894546136       -2.3598269494
 C          5.2502587638       -1.7433412252       -1.4694859185
 N          3.9452581556       -1.4862802602       -1.0937406989
 C          4.0541512229       -0.5037391355       -0.2507659362
 H         -0.9865951658        2.1174774589        0.0693093670
 H         -7.0762831362        0.9775614048       -0.6327670630
 H         -8.3858062176        2.8778205647       -1.5371484197
 H         -7.2205074214        4.8887845659       -2.3577089711
 H         -4.7594626464        5.0101317642       -2.2784561884
 H         -3.4606850671        3.1042773123       -1.3749774258
 H         -6.9380191757       -1.8388587637        0.1764542664
 H         -8.1018550848       -3.9073864197        0.8905983547
 H         -6.8112798798       -5.7599676574        1.8796503149
 H         -4.3705051468       -5.5566400908        2.1558623724
 H         -3.2174874581       -3.4826775325        1.4394393684
 H         -0.6679197094       -2.1265992078        0.2830186973
 H          1.8077178264       -1.9386391516        0.4059178417
 H          2.5730270658        2.2204874390        2.4773301890
 H          4.3554440174        3.5364450992        3.5433945855
 H          6.7053801124        3.2195333954        2.9332639966
 H          7.3601352556        1.5207598598        1.2554911198
 H          8.1960459525       -0.2567415309       -0.5092693331
 H          9.0360023187       -1.9502320532       -2.1033362257
 H          7.5054062306       -3.4645835663       -3.2575424356
 H          5.0600939758       -3.3550435353       -2.8701482629
  63
  -105.751958329900       8.736119297318065E-002 !
 N          2.3505573735        2.8995690019       -1.2172063518
 C          1.8371123142        1.9623097243       -0.8034490568
 C          1.1319249234        0.8866075139       -0.2121975526
 C         -0.2513695274        0.8405536896       -0.3424945956
 C         -0.9872286050       -0.1351936778        0.3189341722
 C         -2.4442927451       -0.1754111941        0.1790443827
 N         -3.0109364763        0.7049872365       -0.6375731692
 C         -4.3363147990        0.6330137002       -0.7415661823
 C         -5.0068454909        1.5771218254       -1.6332957830
 C         -6.3944154972        1.5532890942       -1.7638105758
 C         -7.0244303086        2.4468130599       -2.6076791965
 C         -6.2789150125        3.3689663794       -3.3261649246
 C         -4.8985328620        3.3966120399       -3.2000882734
 C         -4.2618161689        2.5058976038       -2.3582052332
 N         -5.0831053695       -0.2464515055       -0.0801419855
 C         -4.4334403091       -1.0855227261        0.7201847643
 C         -5.2176318122       -2.0630177203        1.4740077049
 C         -6.6030867136       -2.1091907485        1.3300820425
 C         -7.3424109401       -3.0301696843        2.0462696306
 C         -6.7087378779       -3.9102595284        2.9099416934
 C         -5.3308858755       -3.8691902501        3.0558760790
 C         -4.5855523323       -2.9507513864        2.3426742259
 N         -3.1109743089       -1.0876151291        0.8783444092
 C         -0.3287663238       -1.0702505429        1.1181741480
 C          1.0441852623       -1.0414961509        1.2419312453
 C          1.7908767332       -0.0708239630        0.5789178111
 N          3.1807896757       -0.0564473538        0.6699656809
 C          3.9781900468       -0.2304614669        1.7996302088
 C          3.6385913486       -0.3811896295        3.1310161114
 C          4.6704213471       -0.5044553646        4.0491723636
 C          6.0014929357       -0.4678442776        3.6564008615
 C          6.3554814498       -0.2892609901        2.3283135675
 C          5.3348138976       -0.1663994609        1.4056795996
 N          5.3329075334        0.0393067774        0.0454260253
 C          6.1149312824        0.1580448412       -1.0823336567
 C          7.4793857873        0.1684663481       -1.2981456859
 C          7.9085813281        0.3109810971       -2.6049975382
 C          7.0046933452        0.4397096322       -3.6578218636
 C          5.6392083997        0.4287801411       -3.4510596198
 C          5.1821392603        0.2847085522       -2.1495117830
 N          3.8836424522        0.2363897431       -1.6799389979
 C          4.0235883557        0.1059086292       -0.3971317123
 H         -0.7641846999        1.5709797432       -0.9484112404
 H         -6.9578486064        0.8291189339       -1.1967840357
 H         -8.0996101226        2.4268982290       -2.7084414959
 H         -6.7744362705        4.0668209112       -3.9852342964
 H         -4.3194838700        4.1152864510       -3.7610948051
 H         -3.1888198687        2.5129433342       -2.2494337840
 H         -7.0783002107       -1.4163248409        0.6542209075
 H         -8.4160809360       -3.0645378545        1.9337182760
 H         -7.2892903576       -4.6292148056        3.4693869859
 H         -4.8397097010       -4.5563672807        3.7289041373
 H         -3.5127528592       -2.9033646541        2.4452774724
 H         -0.9129755976       -1.8231610226        1.6228001974
 H          1.5545190813       -1.7875197951        1.8320029336
 H          2.6086348697       -0.3897701998        3.4507702997
 H          4.4298801931       -0.6278308152        5.0938624262
 H          6.7766268320       -0.5699595208        4.3999753236
 H          7.3884449538       -0.2422722878        2.0239726521
 H          8.1807014349        0.0713226376       -0.4835146800
 H          8.9678959812        0.3246316536       -2.8134806273
 H          7.3866613150        0.5518121743       -4.6617406211
 H          4.9389098918        0.5311719288       -4.2635645406
  63
  -105.751835628900       7.672361911367392E-002 !
 N          2.3740908272        2.7322751794       -1.5267045531
 C          1.8488286471        1.8544339031       -1.0103301904
 C          1.1348293860        0.8578416152       -0.3027090927
 C         -0.2483203792        0.8025444949       -0.4307725523
 C         -0.9880845209       -0.0947376175        0.3299121627
 C         -2.4448783596       -0.1486628403        0.1893066036
 N         -3.0238363389        0.7511128699       -0.5969902018
 C         -4.3489150033        0.6683804575       -0.6976100818
 C         -5.0366545656        1.6453000488       -1.5395211713
 C         -6.4125541105        1.5497514351       -1.7412294101
 C         -7.0603338590        2.4748995266       -2.5360510642
 C         -6.3443758548        3.5011182991       -3.1331796940
 C         -4.9759415636        3.6011336267       -2.9349161969
 C         -4.3212392073        2.6783743910       -2.1427245087
 N         -5.0817270639       -0.2504385921       -0.0754973433
 C         -4.4194541384       -1.1118158221        0.6900094726
 C         -5.1874213511       -2.1398081285        1.3913093287
 C         -6.5755776731       -2.1779418690        1.2730466141
 C         -7.2995701324       -3.1497326577        1.9355484395
 C         -6.6477678831       -4.0890553215        2.7195592900
 C         -5.2670652817       -4.0559508638        2.8400147625
 C         -4.5369656699       -3.0869385461        2.1799933956
 N         -3.0983427131       -1.0931461256        0.8573324248
 C         -0.3346907651       -0.9385859520        1.2285969992
 C          1.0376275365       -0.8961404030        1.3569565918
 C          1.7883394105       -0.0066678417        0.5927981814
 N          3.1783898706        0.0161340997        0.6866863766
 C          3.9711628763       -0.0060877753        1.8322715409
 C          3.6250096369        0.0136995426        3.1702435751
 C          4.6526209405        0.0180258658        4.1012037415
 C          5.9854251456        0.0128999980        3.7126549526
 C          6.3455439168        0.0193081724        2.3742346137
 C          5.3292482191        0.0145225914        1.4387496263
 N          5.3325960804        0.0421454856        0.0632409041
 C          6.1187115858        0.0180351917       -1.0677587097
 C          7.4838646728        0.0078842300       -1.2785713181
 C          7.9176652010       -0.0181981833       -2.5914006983
 C          7.0175480616       -0.0327584666       -3.6550988186
 C          5.6514097797       -0.0239290956       -3.4532492591
 C          5.1897911818        0.0005318074       -2.1456086450
 N          3.8895252679        0.0072336403       -1.6784705314
 C          4.0249230464        0.0443052030       -0.3890921560
 H         -0.7573271251        1.4621226210       -1.1160655208
 H         -6.9526345620        0.7442979628       -1.2691022433
 H         -8.1263671507        2.3988654368       -2.6927213719
 H         -6.8537009749        4.2237468857       -3.7538452909
 H         -4.4202726679        4.4014246376       -3.4008592122
 H         -3.2572826114        2.7418663842       -1.9776950552
 H         -7.0650720194       -1.4383769373        0.6593452939
 H         -8.3752700426       -3.1777467592        1.8431010428
 H         -7.2163358056       -4.8478276231        3.2371561918
 H         -4.7616170083       -4.7892179063        3.4515624759
 H         -3.4621423350       -3.0473680898        2.2605797971
 H         -0.9226048574       -1.6305256205        1.8102556280
 H          1.5443637387       -1.5704613264        2.0306262334
 H          2.5930088436        0.0377942123        3.4829601236
 H          4.4074994641        0.0295426985        5.1520216822
 H          6.7572602838        0.0142724287        4.4666135781
 H          7.3799460795        0.0332993621        2.0713267040
 H          8.1823586286        0.0213366543       -0.4559016898
 H          8.9777385100       -0.0255485087       -2.7963400298
 H          7.4029873327       -0.0506646160       -4.6637853437
 H          4.9538224795       -0.0324932350       -4.2744496715
  63
  -105.751444019700       5.069416256410544E-002 !
 N          2.3886276553        2.5579410845       -1.7825634977
 C          1.8548923638        1.7431786344       -1.1789059856
 C          1.1342099620        0.8286998451       -0.3739473556
 C         -0.2491085614        0.7658948157       -0.4970967134
 C         -0.9906083391       -0.0539513537        0.3445737629
 C         -2.4469126797       -0.1225938555        0.2025716006
 N         -3.0369685742        0.7941517557       -0.5549008935
 C         -4.3621207038        0.7026935197       -0.6505884960
 C         -5.0649231670        1.7122913113       -1.4397186241
 C         -6.4411404647        1.6135186231       -1.6375522495
 C         -7.1032509328        2.5731723951       -2.3778486129
 C         -6.4013026814        3.6367348302       -2.9242225592
 C         -5.0324066489        3.7393735819       -2.7304047628
 C         -4.3633908363        2.7825869164       -1.9923710189
 N         -5.0809886991       -0.2525581052       -0.0685974207
 C         -4.4060720581       -1.1357852893        0.6601564298
 C         -5.1553876556       -2.2156806375        1.3005372871
 C         -6.5436791769       -2.2661911229        1.1890954028
 C         -7.2480834507       -3.2933228692        1.7861560070
 C         -6.5764275902       -4.2758693925        2.4970682749
 C         -5.1956004458       -4.2297051787        2.6115207268
 C         -4.4849235403       -3.2053702117        2.0170636687
 N         -3.0867323295       -1.0969743712        0.8394042508
 C         -0.3411178283       -0.8071347410        1.3226856720
 C          1.0308446222       -0.7500709843        1.4528807433
 C          1.7839666502        0.0573392873        0.6051675799
 N          3.1744831005        0.0886319767        0.6981480972
 C          3.9657927857        0.2066367157        1.8384661080
 C          3.6180046067        0.3798741085        3.1648440967
 C          4.6447448717        0.5022677771        4.0887709050
 C          5.9780465162        0.4633628884        3.7035798500
 C          6.3395571942        0.3135903370        2.3739022696
 C          5.3241641806        0.1894922186        1.4457139231
 N          5.3286791728        0.0522371355        0.0768144811
 C          6.1163056500       -0.1077186730       -1.0418798128
 C          7.4818894050       -0.1400478786       -1.2477164646
 C          7.9180668615       -0.3298675979       -2.5462461399
 C          7.0195265996       -0.4811992416       -3.6006082540
 C          5.6528319195       -0.4501244715       -3.4034795402
 C          5.1887305361       -0.2619324748       -2.1100779953
 N          3.8878348501       -0.2021640162       -1.6485053194
 C          4.0216347932       -0.0071808017       -0.3730963783
 H         -0.7555973081        1.3561153036       -1.2448526029
 H         -6.9701339073        0.7787244324       -1.2054818664
 H         -8.1696754927        2.4953499339       -2.5310065529
 H         -6.9220484751        4.3867783208       -3.5014092661
 H         -4.4877876136        4.5690219693       -3.1564525085
 H         -3.2991149545        2.8482643583       -1.8295339573
 H         -7.0488326807       -1.4931769771        0.6317623060
 H         -8.3238947225       -3.3320179478        1.6977078901
 H         -7.1295418101       -5.0792554540        2.9612944318
 H         -4.6747210214       -4.9973626115        3.1646855298
 H         -3.4099553630       -3.1559540514        2.0909282132
 H         -0.9309432429       -1.4392391798        1.9673627614
 H          1.5351147009       -1.3515087394        2.1941426347
 H          2.5855726034        0.4313295659        3.4724536072
 H          4.3985746018        0.6348551174        5.1310302023
 H          6.7489180227        0.5605528492        4.4521394109
 H          7.3739617094        0.2995513251        2.0712176372
 H          8.1786915465       -0.0213538052       -0.4320612486
 H          8.9783403630       -0.3610427493       -2.7471738101
 H          7.4065761431       -0.6264160464       -4.5983751759
 H          4.9572768955       -0.5645812777       -4.2184510929
  63
  -105.751398570200       4.831375683524036E-002 !
 N          2.3494181182        3.0403031816       -0.8005004635
 C          1.8396291257        2.0498090707       -0.5312342038
 C          1.1347285803        0.8995655675       -0.1020452552
 C         -0.2493719111        0.8761036767       -0.2335223364
 C         -0.9864369114       -0.1764029580        0.2947417195
 C         -2.4447247543       -0.1907550163        0.1640565250
 N         -2.9985233979        0.6649561952       -0.6862349397
 C         -4.3258228753        0.6118641393       -0.7812569723
 C         -4.9817622965        1.5078323817       -1.7313872845
 C         -4.2183739514        2.3089397889       -2.5790830323
 C         -4.8411263544        3.1483980916       -3.4819573591
 C         -6.2251401857        3.1973114231       -3.5458603831
 C         -6.9887075440        2.4032174120       -2.7040274780
 C         -6.3729075049        1.5600885494       -1.7999022464
 N         -5.0864243572       -0.2095002818       -0.0633327378
 C         -4.4480043740       -1.0236525810        0.7710506566
 C         -5.2456769017       -1.9336953231        1.5918889695
 C         -6.6303829884       -1.9809505150        1.4422345980
 C         -7.3810453499       -2.8373685426        2.2237558248
 C         -6.7595454851       -3.6510656463        3.1584090956
 C         -5.3823778532       -3.6077568394        3.3110618647
 C         -4.6256677128       -2.7540552273        2.5326270641
 N         -3.1234851463       -1.0589957959        0.9060412802
 C         -0.3297230584       -1.2145840201        0.9557780011
 C          1.0444809037       -1.2132892263        1.0677331467
 C          1.7930708042       -0.1630124089        0.5421097046
 N          3.1832818810       -0.1695592676        0.6248718150
 C          3.9867117134       -0.5241450699        1.7074427648
 C          3.6555940558       -0.8792390517        3.0016686657
 C          4.6926805894       -1.1535112587        3.8803721237
 C          6.0211947535       -1.0663538793        3.4873153965
 C          6.3672475858       -0.6828312651        2.2012867009
 C          5.3412256214       -0.4079505897        1.3182411088
 N          5.3323261482        0.0111043180        0.0080261647
 C          6.1086480531        0.3098365099       -1.0899409539
 C          7.4719392741        0.3526674100       -1.3090520728
 C          7.8945253749        0.7100069652       -2.5764110295
 C          6.9854224862        1.0144769221       -3.5877328751
 C          5.6210454252        0.9708680731       -3.3781278042
 C          5.1705496974        0.6128502785       -2.1161152053
 N          3.8745819981        0.4926023552       -1.6526475668
 C          4.0209295585        0.1550113678       -0.4089372656
 H         -0.7611051697        1.6857092219       -0.7302888424
 H         -3.1427633358        2.2550228806       -2.5186267069
 H         -4.2483526044        3.7669419170       -4.1395584137
 H         -6.7095278267        3.8550298068       -4.2527497897
 H         -8.0669130472        2.4443593856       -2.7550940743
 H         -6.9503425948        0.9359413666       -1.1361864616
 H         -7.0959630458       -1.3416948845        0.7089350569
 H         -8.4541701258       -2.8730003038        2.1068857670
 H         -7.3490883130       -4.3191894557        3.7691143616
 H         -4.9007455769       -4.2413985573        4.0413231745
 H         -3.5536078631       -2.7034553224        2.6404963823
 H         -0.9156531566       -2.0259769741        1.3575471176
 H          1.5535345026       -2.0392522613        1.5406049357
 H          2.6283330297       -0.9293168485        3.3256874050
 H          4.4582130024       -1.4377675056        4.8945887055
 H          6.8005562343       -1.2912327296        4.1988140190
 H          7.3983592239       -0.5963018273        1.8994180961
 H          8.1772761611        0.1203336688       -0.5259047113
 H          8.9526942048        0.7565135903       -2.7857191030
 H          7.3624060375        1.2926969255       -4.5608326819
 H          4.9167347536        1.2092230242       -4.1579834114
  63
  -105.751223255300       4.013300318576515E-002 !
 N          2.4064032806        2.5064047290       -1.9051014240
 C          1.8615582562        1.7288505599       -1.2635851083
 C          1.1334535680        0.8583176148       -0.4176750753
 C         -0.2500275779        0.7912702951       -0.5415019720
 C         -0.9925256596        0.0066736189        0.3317784441
 C         -2.4480349665       -0.0789655835        0.1893302726
 N         -3.0543656854        0.8342596243       -0.5590575058
 C         -4.3799957794        0.7298541876       -0.6396325380
 C         -5.1037247257        1.7413272186       -1.4070180163
 C         -4.4155768545        2.8039242043       -1.9904832169
 C         -5.1046902582        3.7615893746       -2.7086673160
 C         -6.4807090036        3.6686609181       -2.8501726059
 C         -7.1695330010        2.6134484876       -2.2720437845
 C         -6.4870908169        1.6519185550       -1.5530760304
 N         -5.0818301645       -0.2408617400       -0.0620344997
 C         -4.3886649374       -1.1282399222        0.6438816552
 C         -5.1129847884       -2.2371394202        1.2628405866
 C         -4.4127763008       -3.2601963792        1.8997705620
 C         -5.0977827957       -4.3148589320        2.4707735155
 C         -6.4823069491       -4.3571852222        2.4133900448
 C         -7.1832506369       -3.3411996122        1.7821842654
 C         -6.5045885922       -2.2845069104        1.2072269777
 N         -3.0695752868       -1.0698017762        0.8183907815
 C         -0.3463327262       -0.7022953787        1.3445391513
 C          1.0245202621       -0.6361972084        1.4788103077
 C          1.7795849684        0.1321620432        0.5973361356
 N          3.1701253627        0.1632515737        0.6936161329
 C          3.9552129064        0.3213011191        1.8330498161
 C          3.6000940598        0.5767797974        3.1441052051
 C          4.6215442511        0.7228264725        4.0704203175
 C          5.9565531626        0.6265699117        3.7012919084
 C          6.3257288337        0.3937457911        2.3856746222
 C          5.3156813344        0.2460847363        1.4549451742
 N          5.3271664651        0.0337895740        0.0955999888
 C          6.1183430074       -0.2141365449       -1.0044954614
 C          7.4836446919       -0.3048437723       -1.1942825726
 C          7.9237690961       -0.5842584672       -2.4751137624
 C          7.0295629650       -0.7645266647       -3.5285355410
 C          5.6632430424       -0.6755925656       -3.3475249217
 C          5.1951488361       -0.3991803609       -2.0715393112
 N          3.8928196811       -0.2740409982       -1.6269145499
 C          4.0222770297       -0.0131789646       -0.3630329842
 H         -0.7542096326        1.3479842427       -1.3160778420
 H         -3.3454949790        2.8621070808       -1.8679603338
 H         -4.5702737826        4.5842824359       -3.1602767583
 H         -7.0170520338        4.4193136099       -3.4121962518
 H         -8.2415644479        2.5433425985       -2.3840722075
 H         -7.0056817263        0.8235425035       -1.0967733700
 H         -3.3354937063       -3.2128704706        1.9295364862
 H         -4.5539092052       -5.1088658532        2.9610769591
 H         -7.0155112976       -5.1837005103        2.8599610671
 H         -8.2619080174       -3.3768069272        1.7390040684
 H         -7.0326299482       -1.4855479194        0.7111784019
 H         -0.9382789160       -1.3073949396        2.0128710360
 H          1.5269615789       -1.2016249082        2.2490964857
 H          2.5662444791        0.6719949249        3.4367021454
 H          4.3701335813        0.9200592770        5.1011305925
 H          6.7233300436        0.7449493407        4.4510568746
 H          7.3622195696        0.3352475457        2.0955528481
 H          8.1775251647       -0.1647068784       -0.3794620664
 H          8.9841439884       -0.6638816431       -2.6626595660
 H          7.4197421115       -0.9803147571       -4.5121784243
 H          4.9704911684       -0.8135045514       -4.1612691898
