  130
       -199.92958729
 C          5.6041687498        1.4765509356        0.9223051780
 C          5.7680974566        0.5419365306       -0.0863348820
 C          4.8147864965       -0.4381725189       -0.2879804808
 C          3.6789986001       -0.4952133330        0.5159559952
 C          2.6906546978       -1.5779002349        0.3562546999
 C          1.3397479791       -1.2765026389        0.2531846835
 C          0.3817204159       -2.2725469000        0.0997353234
 C         -1.0373680243       -1.8884141933        0.0305523533
 C         -2.0068792978       -2.5147910161        0.8116819224
 C         -3.3216135884       -2.0955933863        0.7773993601
 C         -3.6976009387       -1.0273968624       -0.0325783643
 C         -5.0499632743       -0.4860946740        0.0126420802
 N         -6.1709033394       -1.1430668350       -0.1209679757
 C         -7.1577274193       -0.2075053716       -0.0732310458
 C         -8.5594421508       -0.4001641251       -0.1960776053
 C         -9.1000917792       -1.6737679127       -0.4113041898
 C        -10.4550563666       -1.8366662446       -0.5580528456
 C        -11.2886851550       -0.7222555687       -0.4943572577
 C        -10.7690454718        0.5341665418       -0.2768364000
 C         -9.3925266525        0.7417578713       -0.1124918548
 C         -8.8207739429        2.0532883817        0.1475702964
 C         -9.6203083746        3.1924941589        0.3078279265
 C         -9.0810528991        4.4280298870        0.5858651276
 C         -7.7054307256        4.5773381379        0.7296445635
 C         -6.8848409478        3.4872941176        0.5727233603
 C         -7.4155086543        2.2248803054        0.2722090038
 C         -6.6074924812        1.0677555991        0.1097047440
 N         -5.2555563299        0.8746265556        0.1682827471
 C         -4.1838776702        1.7576982981        0.3617849211
 C         -3.3347132213        1.5502482777        1.4567308941
 C         -2.1539211533        2.2313549659        1.5599583185
 C         -1.7223240953        3.1140530462        0.5376069183
 C         -0.3948104289        3.6256476168        0.5335864911
 C          0.2576694324        3.9908104468       -0.6816818503
 C          1.5856962701        4.2627320494       -0.7284838492
 C          2.3814126724        4.2534110901        0.4590718890
 C          3.7685931410        4.4204123961        0.4809476766
 N          4.4431784420        4.7985981561        1.5860129741
 C          5.7169340257        4.9584745254        1.2155953477
 C          6.8324589676        5.3446225904        1.9754052434
 C          8.0567073596        5.3741778159        1.3504071548
 C          8.2038448092        5.0262071641        0.0021052017
 C          7.1191567316        4.6514595567       -0.7778952395
 C          5.8778372833        4.6385090610       -0.1728728634
 N          4.6282347255        4.2962451187       -0.6208595014
 C          4.3633245888        3.6493883657       -1.8332923445
 C          4.8223602702        4.1945224185       -3.0291603487
 C          4.5937635914        3.5313918120       -4.2209886747
 C          3.9088732079        2.3275026681       -4.2313083306
 C          3.4451140344        1.7890236883       -3.0408579597
 C          3.6681172822        2.4404181171       -1.8446334277
 C          1.6911611097        4.0771348370        1.7001861583
 C          0.3797894168        3.7394548611        1.7294050229
 C         -2.6418599196        3.3750337960       -0.5118989420
 C         -3.8442089364        2.7255680976       -0.5936133600
 C         -2.7396338162       -0.4320623889       -0.8531094642
 C         -1.4287577686       -0.8532359161       -0.8154362487
 C          0.7864366311       -3.6105388155        0.0341548178
 C         -0.2084970864       -4.6818853415       -0.1677986423
 C         -0.3072476970       -5.7419119209        0.7281048628
 C         -1.2396856188       -6.7424116742        0.5280510583
 C         -2.0829383971       -6.6995075985       -0.5695009132
 C         -1.9918551547       -5.6476474573       -1.4654241442
 C         -1.0624495783       -4.6443324685       -1.2659582120
 C          2.1439150160       -3.9262146605        0.1430198755
 C          2.5750350401       -5.3388740513        0.0813916112
 C          3.2728591967       -5.9105361919        1.1401425678
 C          3.6763074990       -7.2311576365        1.0805157813
 C          3.3913822390       -7.9960902106       -0.0380013051
 C          2.6976377152       -7.4341386924       -1.0962241582
 C          2.2897055312       -6.1146830137       -1.0370783081
 C          3.0971806525       -2.9176753622        0.3100886814
 C          4.5230308789       -3.2723568272        0.4560051915
 C          5.2307657485       -2.8723583293        1.5853551597
 C          6.5625698325       -3.2105102743        1.7334543734
 C          7.2059156643       -3.9492938116        0.7548237840
 C          6.5097497423       -4.3484681882       -0.3735932851
 C          5.1767975051       -4.0144248031       -0.5224273756
 C          3.4979031388        0.4807021648        1.4926864547
 C          4.4586317734        1.4543526528        1.7000651633
 H          6.3626066028        2.2245424894        1.0985190404
 H          6.6470615973        0.5722988769       -0.7137527710
 H          4.9484807082       -1.1637201803       -1.0758574446
 H          1.0234631879       -0.2438752156        0.2997125767
 H         -1.7209380766       -3.3193758148        1.4714000592
 H         -4.0650694286       -2.5719683351        1.3979097346
 H         -8.4178231933       -2.5078979998       -0.4634273334
 H        -10.8751349635       -2.8170241289       -0.7259240193
 H        -12.3551606557       -0.8434684367       -0.6161608154
 H        -11.4530199358        1.3669272711       -0.2379889377
 H        -10.6920099845        3.1138623457        0.2229492535
 H         -9.7302981593        5.2830255257        0.7023503270
 H         -7.2847358674        5.5435746393        0.9648756077
 H         -5.8185883781        3.5950182306        0.6950729544
 H         -3.6172747034        0.8255344858        2.2062805065
 H         -1.5043091817        2.0276103028        2.3954967128
 H         -0.3094586737        3.9976549101       -1.5997528787
 H          2.0442881947        4.5264064127       -1.6684577059
 H          6.7136760476        5.5990740921        3.0158311734
 H          8.9339885393        5.6647278367        1.9092858437
 H          9.1877333842        5.0481924040       -0.4417511668
 H          7.2499278716        4.3682421154       -1.8110282497
 H          5.3373740902        5.1434940229       -3.0209835649
 H          4.9487501646        3.9602900567       -5.1463279725
 H          3.7349284184        1.8123513426       -5.1637869049
 H          2.9132430457        0.8490750416       -3.0414756844
 H          3.3161179798        2.0200151686       -0.9164991633
 H          2.2685133308        4.1825298049        2.6043334124
 H         -0.1086414736        3.5920694447        2.6806115886
 H         -2.3930016657        4.1095319437       -1.2616276917
 H         -4.5211025797        2.9203605462       -1.4139936157
 H         -3.0248641480        0.3591549994       -1.5290003017
 H         -0.6963937310       -0.3809003744       -1.4537810443
 H          0.3427738030       -5.7730518631        1.5903376431
 H         -1.3088132626       -7.5588002883        1.2320770000
 H         -2.8087862891       -7.4834586065       -0.7262179497
 H         -2.6469101867       -5.6092488334       -2.3234776961
 H         -0.9886812601       -3.8269167767       -1.9687524495
 H          3.4917432198       -5.3165171639        2.0156042979
 H          4.2158264570       -7.6650521264        1.9097450707
 H          3.7091475208       -9.0271386971       -0.0845822933
 H          2.4732151841       -8.0259688065       -1.9716526726
 H          1.7529832845       -5.6764999308       -1.8660906863
 H          4.7289221749       -2.3002170582        2.3521850061
 H          7.1005491067       -2.8967262973        2.6161169106
 H          8.2466852552       -4.2129460955        0.8710703109
 H          7.0071445590       -4.9232839995       -1.1411546708
 H          4.6382962075       -4.3213853277       -1.4071766529
 H          2.6118769737        0.4570378673        2.1112635041
 H          4.3167392310        2.1987390721        2.4688201015
  130
       -199.92900607
 C          5.4423424317        1.3834670062        0.5928004797
 C          5.5838039125        0.3898633090       -0.3621435055
 C          4.6464138090       -0.6211744581       -0.4556591399
 C          3.5486863373       -0.6503047510        0.4012157994
 C          2.5719359603       -1.7531510421        0.3285476858
 C          1.2171924614       -1.4744383958        0.2213647564
 C          0.2718344293       -2.4889282763        0.1116000608
 C         -1.1482861611       -2.1143920478        0.0171127472
 C         -2.1259972127       -2.7008516325        0.8183691133
 C         -3.4333882851       -2.2580615999        0.7760425402
 C         -3.7923111608       -1.2079404870       -0.0645515809
 C         -5.1163544535       -0.6009966812       -0.0046982607
 N         -6.2763883726       -1.1918697369       -0.1049682454
 C         -7.2050320198       -0.1979666378       -0.0501476442
 C         -8.6181148998       -0.3093551239       -0.1379704624
 C         -9.2376319392       -1.5522596859       -0.3181491280
 C        -10.6031093761       -1.6373977610       -0.4279758459
 C        -11.3684744021       -0.4751875039       -0.3608734223
 C        -10.7709850573        0.7518402234       -0.1788388225
 C         -9.3806751927        0.8809671186       -0.0546806438
 C         -8.7268719932        2.1605093884        0.1683204746
 C         -9.4542297768        3.3488193944        0.3174634088
 C         -8.8384202118        4.5542317972        0.5662332273
 C         -7.4546471357        4.6217903780        0.6934775722
 C         -6.7032152163        3.4822570475        0.5429239302
 C         -7.3118885899        2.2496950459        0.2661893471
 C         -6.5766385141        1.0448033284        0.1021721096
 N         -5.2373302791        0.7723518667        0.1341071218
 C         -4.1141466824        1.5957982414        0.2927582453
 C         -3.2401399431        1.3386672348        1.3577086492
 C         -2.0347769376        1.9766696904        1.4385845083
 C         -1.6049601589        2.8797295445        0.4317708922
 C         -0.2839845609        3.4068259778        0.4405182672
 C          0.3468570620        3.8905722041       -0.7451954344
 C          1.6561970094        4.2461451779       -0.7736046340
 C          2.4604462843        4.1943301149        0.4059638706
 C          3.8267851402        4.4816299307        0.4629627316
 N          4.4574292882        4.7370047523        1.6300694178
 C          5.7122849803        5.0728754568        1.3205435470
 C          6.7794523882        5.4389455473        2.1561948300
 C          7.9948120054        5.6996716882        1.5687837077
 C          8.1809055526        5.5979278004        0.1848197323
 C          7.1440936186        5.2463166876       -0.6677517845
 C          5.9102176247        5.0048853625       -0.0967251477
 N          4.7026010893        4.6221468414       -0.6218731646
 C          4.5157104615        4.2145810701       -1.9484568065
 C          4.8881748505        5.0597816528       -2.9902307330
 C          4.7492166096        4.6403285435       -4.3004140013
 C          4.2398430341        3.3830519792       -4.5810954203
 C          3.8642621773        2.5440847256       -3.5430877207
 C          4.0012038664        2.9497676054       -2.2301433297
 C          1.7926300173        3.8549601611        1.6261353646
 C          0.5007096926        3.4515227727        1.6342587401
 C         -2.5370930761        3.1715614921       -0.5990845156
 C         -3.7590360549        2.5570922796       -0.6636575758
 C         -2.8307483739       -0.6679545205       -0.9189611142
 C         -1.5282396453       -1.1117050223       -0.8726968144
 C          0.6932076325       -3.8231064921        0.1047900227
 C         -0.2854179559       -4.9158453183       -0.0550056252
 C         -0.3588215455       -5.9502805868        0.8728856804
 C         -1.2705995145       -6.9758309763        0.7068542674
 C         -2.1194125348       -6.9833986392       -0.3872615377
 C         -2.0552699592       -5.9560330985       -1.3135889979
 C         -1.1459670975       -4.9283208860       -1.1488297886
 C          2.0552574434       -4.1156061305        0.2272339066
 C          2.5125685326       -5.5212163075        0.2154144365
 C          3.2267733326       -6.0419134422        1.2892391635
 C          3.6688924479       -7.3514215716        1.2667673936
 C          3.4064855789       -8.1558178254        0.1707303312
 C          2.6937836279       -7.6456553869       -0.9011958212
 C          2.2472008261       -6.3377288922       -0.8791235710
 C          2.9954242517       -3.0879082477        0.3441019271
 C          4.4265870183       -3.4134531499        0.5043105158
 C          5.1244878954       -2.9518130200        1.6162992610
 C          6.4588228012       -3.2676751413        1.7865526745
 C          7.1156931718       -4.0434505192        0.8459713332
 C          6.4306616823       -4.5000805793       -0.2671803771
 C          5.0943462306       -4.1896284157       -0.4372607828
 C          3.3943911132        0.3746965282        1.3298386246
 C          4.3420089225        1.3774696026        1.4330869248
 H          6.1848598510        2.1632450953        0.6803440209
 H          6.4302119245        0.4001712781       -1.0334956081
 H          4.7615323940       -1.3941346722       -1.2004917187
 H          0.8891582371       -0.4446441584        0.2244726529
 H         -1.8514529260       -3.4873273243        1.5044213919
 H         -4.1809516449       -2.6964153815        1.4194973005
 H         -8.6066136571       -2.4256672978       -0.3727701910
 H        -11.0843945021       -2.5935668643       -0.5685195373
 H        -12.4431877245       -0.5358037796       -0.4512511980
 H        -11.4043078420        1.6234756556       -0.1342607767
 H        -10.5296644766        3.3338956520        0.2454637757
 H         -9.4334008694        5.4490156085        0.6733519770
 H         -6.9728905675        5.5636223680        0.9098745469
 H         -5.6312784979        3.5286535481        0.6523359637
 H         -3.5259583902        0.6136457350        2.1054590053
 H         -1.3734817812        1.7308594966        2.2529832620
 H         -0.2219469545        3.9360676713       -1.6610847296
 H          2.0881194197        4.6065594502       -1.6934613104
 H          6.6312637108        5.5056200047        3.2215459778
 H          8.8346250946        5.9850728603        2.1849320000
 H          9.1570641392        5.7980175133       -0.2305462714
 H          7.3044141644        5.1584331058       -1.7315701785
 H          5.2682516969        6.0457854918       -2.7674048305
 H          5.0369069942        5.3005162465       -5.1049452909
 H          4.1360033732        3.0588517985       -5.6053392465
 H          3.4698299804        1.5612702558       -3.7552407331
 H          3.7196106340        2.2968912729       -1.4187698936
 H          2.3691703568        3.9115214590        2.5348697906
 H          0.0355326116        3.1992634377        2.5744711467
 H         -2.2843742168        3.9052500628       -1.3480537032
 H         -4.4454045111        2.7804255456       -1.4688218118
 H         -3.1062789611        0.1032991670       -1.6216186958
 H         -0.7911526140       -0.6785114841       -1.5328087674
 H          0.2964338037       -5.9436323000        1.7315695908
 H         -1.3179853581       -7.7731916998        1.4342012677
 H         -2.8287051009       -7.7871325222       -0.5173166854
 H         -2.7154971570       -5.9558392731       -2.1685273664
 H         -1.0916617356       -4.1318148993       -1.8768953850
 H          3.4303160729       -5.4163496362        2.1462786646
 H          4.2227784234       -7.7449661700        2.1066561992
 H          3.7568238397       -9.1771448143        0.1515247875
 H          2.4864344631       -8.2684526476       -1.7592123858
 H          1.6971024709       -5.9394114053       -1.7195278689
 H          4.6125534736       -2.3510579308        2.3541296174
 H          6.9872740521       -2.9075216749        2.6572183791
 H          8.1582458591       -4.2914016837        0.9794585967
 H          6.9397288742       -5.1026000792       -1.0053343702
 H          4.5637435280       -4.5425523048       -1.3095637560
 H          2.5405118979        0.3699571088        1.9920547735
 H          4.2256841300        2.1592479808        2.1672582903
  130
       -199.92839593
 C          5.3851329594        1.3316626114        0.5369978681
 C          5.5875878855        0.3026494515       -0.3686462812
 C          4.6691917952       -0.7252305082       -0.4697053672
 C          3.5302448640       -0.7376052751        0.3318658057
 C          2.5587798146       -1.8441282822        0.2476727996
 C          1.2087842643       -1.5589257644        0.1002982729
 C          0.2588190931       -2.5685206495       -0.0039603342
 C         -1.1591869626       -2.1874270662       -0.0962214580
 C         -2.1249637176       -2.7532243255        0.7340305271
 C         -3.4277300709       -2.2971925969        0.7148134219
 C         -3.7925814354       -1.2533198662       -0.1310083890
 C         -5.1053527903       -0.6283469100       -0.0391651751
 N         -6.2748870142       -1.2075478047       -0.0781358151
 C         -7.1887706532       -0.2021554971       -0.0011992557
 C         -8.6053302554       -0.3006732329       -0.0160998874
 C         -9.2443504710       -1.5409874440       -0.1357513224
 C        -10.6143475822       -1.6147755022       -0.1727403667
 C        -11.3646506665       -0.4433878211       -0.0947767382
 C        -10.7475067391        0.7811674547        0.0293726398
 C         -9.3516374375        0.8985327869        0.0818178712
 C         -8.6753234873        2.1753247087        0.2452561798
 C         -9.3837542603        3.3729107475        0.4094114591
 C         -8.7454375877        4.5781780879        0.5949053963
 C         -7.3562503204        4.6364350823        0.6388632435
 C         -6.6235138488        3.4861880791        0.4768313969
 C         -7.2562368251        2.2524824161        0.2675283133
 C         -6.5408616929        1.0362824334        0.0988867250
 N         -5.2043170802        0.7484680442        0.0773427749
 C         -4.0651048645        1.5552626466        0.2138084687
 C         -3.1921754624        1.3002092120        1.2793443225
 C         -1.9835627299        1.9338603934        1.3561532898
 C         -1.5523326137        2.8297967574        0.3453668986
 C         -0.2365108461        3.3727601335        0.3659247856
 C          0.4113414109        3.8309337607       -0.8196485332
 C          1.7100458087        4.2253719197       -0.8281308148
 C          2.4836990973        4.2401023500        0.3730908140
 C          3.8329012864        4.5918012456        0.4608761759
 N          4.4132274805        4.8994151416        1.6425736482
 C          5.6482307455        5.3213250986        1.3632815046
 C          6.6584115614        5.7815272974        2.2233193357
 C          7.8659700613        6.1302184279        1.6667380208
 C          8.1009554469        6.0222602275        0.2906868407
 C          7.1209013488        5.5764114982       -0.5852459294
 C          5.8921899176        5.2492080598       -0.0471109076
 N          4.7312607879        4.7719242211       -0.6005850835
 C          4.6070194701        4.3372169713       -1.9253843558
 C          4.9682824352        5.1833744929       -2.9705124874
 C          4.8906803850        4.7361373639       -4.2766959369
 C          4.4535562382        3.4505151825       -4.5507945827
 C          4.0867453223        2.6110660012       -3.5101470192
 C          4.1623920680        3.0445920802       -2.2013852640
 C          1.7968942611        3.9104133487        1.5859733265
 C          0.5172867488        3.4690086922        1.5754759963
 C         -2.4757599042        3.1083832810       -0.6954037075
 C         -3.7008269211        2.4986271219       -0.7558161692
 C         -2.8459569366       -0.7372378846       -1.0160936136
 C         -1.5474979480       -1.1950004383       -0.9934137828
 C          0.6710673265       -3.9051687995        0.0180761172
 C         -0.3203581302       -4.9868205847       -0.1398430048
 C         -0.4341953124       -5.9991115658        0.8080099280
 C         -1.3704424573       -7.0036100504        0.6497543063
 C         -2.2029531806       -7.0125391502       -0.4568064563
 C         -2.0966742695       -6.0086893993       -1.4046147144
 C         -1.1634344792       -5.0014665921       -1.2471302236
 C          2.0276716355       -4.2047475427        0.1752878270
 C          2.4607936535       -5.6178181818        0.2085199322
 C          3.1226403823       -6.1298454346        1.3194128457
 C          3.5162520541       -7.4546386892        1.3500256381
 C          3.2584493664       -8.2825847603        0.2705292086
 C          2.6030484288       -7.7793799737       -0.8405450399
 C          2.2041209946       -6.4562805134       -0.8712750656
 C          2.9722022674       -3.1816136865        0.3021720142
 C          4.3928264555       -3.5136761873        0.5265464419
 C          5.0512466817       -3.0124727084        1.6456184906
 C          6.3750716054       -3.3312580779        1.8813513733
 C          7.0603203770       -4.1514472804        1.0008660939
 C          6.4143929552       -4.6495699762       -0.1180467894
 C          5.0891104920       -4.3350294741       -0.3542335082
 C          3.3196766994        0.3183853226        1.2144221395
 C          4.2458995509        1.3399684685        1.3242770076
 H          6.1097254619        2.1282011066        0.6259234585
 H          6.4659080289        0.3010003687       -0.9977673054
 H          4.8309477458       -1.5234766234       -1.1783018826
 H          0.8871279490       -0.5275329826        0.0742966782
 H         -1.8421496536       -3.5320589291        1.4252630853
 H         -4.1658746110       -2.7173494649        1.3807498916
 H         -8.6248535404       -2.4217944216       -0.2023179205
 H        -11.1105826910       -2.5692293257       -0.2648028010
 H        -12.4430919180       -0.4948321253       -0.1296575196
 H        -11.3697318631        1.6601359776        0.0855470665
 H        -10.4616429581        3.3656576320        0.3996697100
 H         -9.3262430785        5.4804388185        0.7161949183
 H         -6.8559673713        5.5794116947        0.8019270768
 H         -5.5469787886        3.5253154049        0.5246276321
 H         -3.4824091413        0.5817878621        2.0318530410
 H         -1.3212582488        1.6925978254        2.1712590219
 H         -0.1352591546        3.8245653382       -1.7502737004
 H          2.1548052001        4.5655321006       -1.7494066286
 H          6.4727536682        5.8526816615        3.2824545273
 H          8.6614348736        6.4914518453        2.3016693647
 H          9.0703505655        6.2932004429       -0.0995939324
 H          7.3203059256        5.4850060309       -1.6421087192
 H          5.2896008978        6.1913911201       -2.7543313477
 H          5.1688600827        5.3971211059       -5.0840764273
 H          4.3967074584        3.1048584891       -5.5717649487
 H          3.7473182872        1.6068703749       -3.7165598513
 H          3.8868202916        2.3918634387       -1.3883291603
 H          2.3487803401        4.0120851652        2.5062115952
 H          0.0356406907        3.2296244756        2.5109491294
 H         -2.2169775260        3.8316487778       -1.4524745847
 H         -4.3834682767        2.7163054694       -1.5656399738
 H         -3.1300088550        0.0275254832       -1.7224754094
 H         -0.8200897916       -0.7783424274       -1.6746433283
 H          0.2070051393       -5.9900881837        1.6771174175
 H         -1.4508533064       -7.7827100046        1.3936967099
 H         -2.9326162554       -7.7989574810       -0.5798455067
 H         -2.7435981023       -6.0103610711       -2.2696696435
 H         -1.0777697460       -4.2217194005       -1.9902448670
 H          3.3199269858       -5.4864427515        2.1646301233
 H          4.0260139675       -7.8424962671        2.2198876224
 H          3.5674257566       -9.3170809469        0.2950120732
 H          2.4008022517       -8.4204693079       -1.6861916492
 H          1.6954325667       -6.0640457047       -1.7401249027
 H          4.5155256495       -2.3786008641        2.3372361510
 H          6.8731633231       -2.9399818421        2.7564740085
 H          8.0946075570       -4.4009321178        1.1859249546
 H          6.9457391585       -5.2859189034       -0.8106745945
 H          4.5917122134       -4.7176208027       -1.2335140071
 H          2.4355118588        0.3255212444        1.8354897176
 H          4.0806878051        2.1468200361        2.0210298558
