  74
       -119.16499988
 N         -6.3978762840        0.3796073352       -2.1573409772
 C         -5.4950835505       -0.2777358192       -1.8976425292
 C         -4.4079627014       -1.1221626260       -1.5816388740
 C         -4.2216806667       -2.3040837496       -2.3018929667
 C         -3.1781696532       -3.1537500276       -2.0017138558
 C         -2.2990486320       -2.8550148107       -0.9586047290
 C         -1.1052281853       -3.6718823658       -0.6994831171
 C         -1.0777767091       -5.0561771484       -0.8503693125
 C          0.0991886034       -5.7513816090       -0.6318202384
 C          1.2599321749       -5.0916617082       -0.2661746727
 C          1.2546593762       -3.7076533688       -0.1079207822
 C          2.4342831858       -2.9366909001        0.3071659101
 C          3.3861278881       -3.4470104846        1.1926749384
 C          4.4222608517       -2.6534200661        1.6373029731
 C          4.5218577786       -1.3155660876        1.2450491367
 C          5.5257620594       -0.5052919662        1.8190425177
 N          6.3356081677        0.1296123584        2.3250227117
 C          3.5816337923       -0.7940193059        0.3414297178
 N          3.5784088366        0.5420401092       -0.0556993237
 C          2.4492228896        1.3462252177       -0.0449326545
 C          1.1848922128        1.0872680631        0.4647220086
 C          0.2284973109        2.0796939081        0.3617003775
 C          0.5215341790        3.3094098123       -0.2221230057
 C          1.7898665869        3.5868662346       -0.6932226560
 C          2.7670970937        2.6037045005       -0.6015413280
 C          4.1561848517        2.5480707304       -0.9693871392
 C          5.0175911299        3.4530117359       -1.5743293656
 C          6.3169661721        3.0606342519       -1.8275062039
 C          6.7549263928        1.7794966160       -1.5030863388
 C          5.9154213713        0.8602772298       -0.9026549198
 C          4.6201242284        1.2610303781       -0.6167564942
 C          2.5789429096       -1.6264115482       -0.1368615819
 C          0.0648263425       -3.0220185236       -0.3261050852
 C         -2.5113454027       -1.6969416988       -0.2171173265
 C         -3.5334711152       -0.8117541925       -0.5272971560
 N         -3.6484347806        0.3782713931        0.1929518373
 C         -3.6519452306        0.4812835023        1.5725623620
 C         -3.7318982806       -0.5195715670        2.5287920045
 C         -3.7496269845       -0.1389316441        3.8576239158
 C         -3.6986816265        1.2020854175        4.2297474879
 C         -3.6384449760        2.2025540697        3.2796840532
 C         -3.6168672487        1.8449670718        1.9384108998
 C         -3.5603842912        2.5958583988        0.7138618866
 C         -3.4591693595        3.9516040587        0.4326943079
 C         -3.3690564648        4.3469915181       -0.8870218088
 C         -3.3647766035        3.4101982960       -1.9170818346
 C         -3.4644891395        2.0556540600       -1.6617148384
 C         -3.5809058664        1.6556727516       -0.3401922107
 H         -4.9004540688       -2.5351821245       -3.1096952742
 H         -3.0225625740       -4.0398936586       -2.5975382042
 H         -1.9768514645       -5.5899703920       -1.1195516747
 H          0.1129742862       -6.8246808198       -0.7517498170
 H          2.1732594505       -5.6497656754       -0.1254563901
 H          3.2973127086       -4.4594356469        1.5553024610
 H          5.1546968034       -3.0481393579        2.3262104055
 H          0.9557361922        0.1475326941        0.9465192722
 H         -0.7646892042        1.9040566571        0.7476222276
 H         -0.2579657241        4.0530124436       -0.2925681498
 H          2.0238579652        4.5489659766       -1.1228755864
 H          4.6718379845        4.4396465608       -1.8428956782
 H          7.0042202665        3.7504675275       -2.2937390232
 H          7.7711184614        1.4941287333       -1.7293801757
 H          6.2645814934       -0.1347246347       -0.6721821554
 H          1.9039649213       -1.2255327812       -0.8774266516
 H          0.0459983000       -1.9505042080       -0.2075453525
 H         -1.8623193107       -1.4530760289        0.6104405170
 H         -3.7874838637       -1.5614680830        2.2489822810
 H         -3.8068955654       -0.8988402987        4.6229017173
 H         -3.7137449493        1.4588937611        5.2782794026
 H         -3.6118613682        3.2421029892        3.5686804926
 H         -3.4424818954        4.6752381904        1.2335999062
 H         -3.2902967023        5.3965855605       -1.1281574921
 H         -3.2766015991        3.7475235408       -2.9387537130
 H         -3.4449948116        1.3409899102       -2.4705901391
