  59
        -85.73450724
 C         -2.4415789306       -1.8435677415       -2.0380610287
 C         -1.0296081161       -1.6656451376       -1.6068788535
 S          0.2552581479       -2.3263956760       -2.5791939244
 C          1.4894906350       -1.7280362782       -1.4941816926
 C          2.9125695962       -1.9929626418       -1.8430306151
 C          0.9177000843       -1.0787208995       -0.4453254142
 P          1.5418729819       -0.2386267426        1.0480232312
 C          1.3588228592        1.4807902357        0.4365274048
 C          0.8878987685        2.4361042966        1.3291292446
 C          0.6813348571        3.7388891252        0.9138853600
 C          0.9418090128        4.0940263369       -0.3984167061
 C          1.4161624010        3.1469714954       -1.2916762703
 C          1.6230685605        1.8440360439       -0.8793061542
 C          3.3550208083       -0.4818442915        0.9150458997
 C          4.2708253902        0.5355856884        0.6760816961
 C          5.6281852257        0.2642964239        0.6923525337
 C          6.0838118397       -1.0146728637        0.9627785033
 C          5.1770369514       -2.0276119127        1.2337781199
 C          3.8228545029       -1.7585153107        1.2224450685
 C         -0.5160552546       -1.0438903687       -0.5110879299
 P         -1.3104370032       -0.1690623080        0.8670012878
 C         -2.8695414052       -1.1261257312        0.9964807014
 C         -2.7232987507       -2.4774025196        1.3039462218
 C         -3.8322928480       -3.2826982229        1.4741003924
 C         -5.1032010744       -2.7424553514        1.3563490763
 C         -5.2550806036       -1.3956837543        1.0737873329
 C         -4.1460299766       -0.5862783390        0.8998502620
 C         -1.8933094976        1.3675698236        0.0625518812
 C         -1.6872071351        1.6821586738       -1.2736064015
 C         -2.1033024888        2.9050529328       -1.7695740463
 C         -2.7208562290        3.8239367199       -0.9392358485
 C         -2.9173026608        3.5222291870        0.3989600787
 C         -2.4972289515        2.3051151320        0.8980531132
 H         -2.4958520100       -1.9465228834       -3.1201810090
 H         -3.0419362425       -0.9902499175       -1.7283433306
 H         -2.8707145452       -2.7402253729       -1.5872418138
 H          3.5337662483       -1.1262514252       -1.6265007641
 H          3.3031058656       -2.8348814240       -1.2697653034
 H          2.9948170306       -2.2334612935       -2.9013324973
 H          0.6788399700        2.1436202548        2.3493513694
 H          0.3097280890        4.4762503857        1.6104968120
 H          0.7728974205        5.1088439804       -0.7277744280
 H          1.6204266524        3.4250560098       -2.3159797392
 H          1.9864279252        1.1038243893       -1.5795425391
 H          3.9242684985        1.5389656881        0.4716097972
 H          6.3342948054        1.0584615453        0.4954726626
 H          7.1441359751       -1.2204522542        0.9733955505
 H          5.5303132164       -3.0234556250        1.4610837758
 H          3.1053936887       -2.5388441769        1.4444966718
 H         -1.7270914710       -2.8896211036        1.4022718383
 H         -3.7085584352       -4.3315855674        1.7027673609
 H         -5.9727545594       -3.3692527489        1.4891277170
 H         -6.2448648783       -0.9707012586        0.9861827795
 H         -4.2763502630        0.4624602411        0.6728222885
 H         -1.1953922996        0.9767771953       -1.9276525250
 H         -1.9416439269        3.1420628235       -2.8113917969
 H         -3.0431638982        4.7772826270       -1.3317563447
 H         -3.3904848944        4.2409389788        1.0526477490
 H         -2.6283534463        2.0679132006        1.9462404164
