  57
  -86.1896016100000       0.208810003729774      !
 C         -2.8856815157        3.1823851905        2.6270079168
 C         -2.6410517978        1.9425039414        3.1980567011
 C         -2.3945622077        0.8301043125        2.4044227785
 C         -2.3987138553        0.9876122947        1.0359922312
 C         -2.6442546784        2.2390320196        0.4525967040
 C         -2.8899394179        3.3440704013        1.2507413011
 C         -2.5791899634        2.0941262441       -0.9932070041
 C         -2.7494579404        3.0158395122       -2.0129349735
 C         -2.6263242864        2.5845602376       -3.3240598316
 C         -2.3380605202        1.2594615059       -3.6141505292
 C         -2.1668998789        0.3296339622       -2.5972712373
 C         -2.2896103333        0.7551013187       -1.2929740922
 C         -2.1554753634       -0.0559347144       -0.0270646870
 C         -3.1132795717       -1.2209983799        0.0397197422
 C         -4.4885460773       -1.2014563200       -0.0318284380
 C         -5.1714447560       -2.4078107003        0.0494418426
 C         -4.4855303592       -3.6039230066        0.1987278387
 C         -3.1020521931       -3.6270758062        0.2714997627
 C         -2.4138198588       -2.4274732930        0.1914085947
 C         -0.9919348448       -2.1323768550        0.2375685160
 C          0.1141105522       -2.9543569391        0.3806423601
 C          1.3725178565       -2.3806075967        0.3976911515
 C          1.5487182864       -1.0012600704        0.2778535381
 C          2.8973691505       -0.4197130480        0.3141428303
 C          3.1284367874        0.7762674994        1.0296386918
 C          4.3743330948        1.3285888629        1.0881171337
 C          5.4674321396        0.7263385977        0.4302034571
 C          6.7667632737        1.2707233786        0.4722087861
 C          7.8018786257        0.6578681764       -0.1769395464
 C          7.5837074917       -0.5264222184       -0.8984430762
 C          6.3352779533       -1.0785929056       -0.9583020797
 C          5.2459587639       -0.4723247049       -0.2970191086
 C          3.9501388323       -1.0212435807       -0.3340483599
 C          0.4304917648       -0.1761909152        0.1325829037
 C         -0.8201759157       -0.7460160339        0.1118157162
 H         -3.0750412018        4.0335369011        3.2649649418
 H         -2.6420845290        1.8408190438        4.2733942211
 H         -2.2036165735       -0.1361962647        2.8485067295
 H         -3.0804071851        4.3118355629        0.8108239244
 H         -2.9742432251        4.0488538365       -1.7920766456
 H         -2.7575906528        3.2894684176       -4.1323171886
 H         -2.2472151531        0.9464394653       -4.6439423559
 H         -1.9438131440       -0.7031874048       -2.8225748050
 H         -5.0223105492       -0.2693428025       -0.1494569054
 H         -6.2501797968       -2.4146040729       -0.0047289136
 H         -5.0387508814       -4.5299854672        0.2603116025
 H         -2.5721355013       -4.5609323922        0.3890974172
 H         -0.0014956957       -4.0233201118        0.4833045813
 H          2.2411810479       -3.0090691417        0.5303132580
 H          2.3037941165        1.2385934911        1.5527335960
 H          4.5431237642        2.2389237564        1.6459426212
 H          6.9294032322        2.1831040801        1.0286367866
 H          8.7956657770        1.0798994822       -0.1401389296
 H          8.4132101027       -0.9969310372       -1.4061578132
 H          6.1629139080       -1.9902822422       -1.5128687036
 H          3.7896186960       -1.9254502210       -0.9045159872
 H          0.5488346214        0.8916743477        0.0175366839
  57
  -86.1895934000000       0.207003765890154      !
 C         -2.7152686716        3.0349092716        2.8518077432
 C         -2.4181172455        1.7701345124        3.3367795001
 C         -2.2138552676        0.7055577950        2.4691295271
 C         -2.3129276015        0.9359741867        1.1147550978
 C         -2.6112949348        2.2130399542        0.6181053572
 C         -2.8143522959        3.2700746238        1.4898000879
 C         -2.6494155666        2.1453405119       -0.8343106130
 C         -2.8967209235        3.1180892513       -1.7888016024
 C         -2.8674167489        2.7574558166       -3.1264952192
 C         -2.5959936797        1.4516934944       -3.5066337207
 C         -2.3473549156        0.4710767164       -2.5554766703
 C         -2.3765806925        0.8263199812       -1.2249167490
 C         -2.1478879340       -0.0492067925       -0.0169424511
 C         -3.1064939976       -1.2128873790        0.0680164896
 C         -4.4829618291       -1.1843328740        0.1034827941
 C         -5.1666326629       -2.3901717109        0.1854873746
 C         -4.4801170029       -3.5943391147        0.2307904284
 C         -3.0953517760       -3.6263956061        0.1953513471
 C         -2.4063388875       -2.4273887920        0.1133382073
 C         -0.9832433980       -2.1401286847        0.0577325880
 C          0.1235224340       -2.9733487581        0.0683832321
 C          1.3835899141       -2.4077146263       -0.0033673551
 C          1.5605829267       -1.0259948095       -0.0896618378
 C          2.9122373624       -0.4573570109       -0.1819180314
 C          3.1658433474        0.6118389411       -1.0699951273
 C          4.4157308456        1.1460120073       -1.1851762189
 C          5.4904326854        0.6519613145       -0.4158404075
 C          6.7934049225        1.1805279378       -0.5127266424
 C          7.8104159856        0.6745458209        0.2477723719
 C          7.5695244796       -0.3819088263        1.1404005884
 C          6.3169545090       -0.9152826360        1.2575181588
 C          5.2461038390       -0.4178106389        0.4847234139
 C          3.9468057575       -0.9520526953        0.5768653540
 C          0.4415254619       -0.1892217594       -0.0983500768
 C         -0.8112196058       -0.7502240347       -0.0224033457
 H         -2.8718699396        3.8474510134        3.5464403175
 H         -2.3456289597        1.6109281646        4.4026321904
 H         -1.9835540701       -0.2804145342        2.8461219979
 H         -3.0465627568        4.2567749789        1.1171155758
 H         -3.1086884461        4.1363041377       -1.4977907966
 H         -3.0587099164        3.5031199958       -3.8845840698
 H         -2.5783004373        1.1940920798       -4.5554651503
 H         -2.1363219568       -0.5465874629       -2.8508334741
 H         -5.0169133328       -0.2457572276        0.0673119595
 H         -6.2463611683       -2.3901333500        0.2137830611
 H         -5.0338617680       -4.5198398856        0.2947665720
 H         -2.5651879687       -4.5666183033        0.2312085600
 H          0.0072630397       -4.0455290612        0.1265061472
 H          2.2536463959       -3.0480352596       -0.0165718124
 H          2.3555187465        0.9883269060       -1.6775104325
 H          4.6018027520        1.9583660179       -1.8738291076
 H          6.9733137801        1.9946479435       -1.2008796640
 H          8.8069703385        1.0841351353        0.1688749687
 H          8.3845778949       -0.7680899901        1.7352089181
 H          6.1273142209       -1.7285297872        1.9440256927
 H          3.7683408034       -1.7547997630        1.2786736353
 H          0.5605820634        0.8837564023       -0.1437988480
  57
  -86.1895490400000       0.197511233782213      !
 C         -2.2438116046        3.2443097266        2.5891215404
 C         -2.0957221763        1.9930534607        3.1685143038
 C         -2.0324185341        0.8491138091        2.3840287014
 C         -2.1208610243        0.9867517078        1.0163327804
 C         -2.2702815109        2.2493128116        0.4243828170
 C         -2.3323493669        3.3860553869        1.2133895582
 C         -2.3344799297        2.0769823289       -1.0184420040
 C         -2.4769850431        2.9971522783       -2.0437983485
 C         -2.5073874736        2.5352901999       -3.3499136884
 C         -2.3975720757        1.1815065124       -3.6298211735
 C         -2.2540451696        0.2532333434       -2.6073120607
 C         -2.2239387275        0.7092697354       -1.3079343002
 C         -2.0765623592       -0.0926583399       -0.0379154161
 C         -3.1404282157       -1.1490515157        0.1365265886
 C         -4.5072545826       -0.9856780362        0.1785878744
 C         -5.3021481611       -2.1111831310        0.3506904054
 C         -4.7336162814       -3.3696751247        0.4778028581
 C         -3.3589069384       -3.5376054272        0.4356053225
 C         -2.5592899465       -2.4195663032        0.2634501686
 C         -1.1157841611       -2.2756146969        0.1814586849
 C         -0.0924928930       -3.2072333834        0.2468591179
 C          1.2153119539       -2.7697881874        0.1375330671
 C          1.5221863339       -1.4187417739       -0.0308098792
 C          2.9210556563       -0.9788926103       -0.1201405440
 C          3.8592067508       -1.7315846169       -0.8609047642
 C          5.1634139983       -1.3400280294       -0.9444353348
 C          5.6156818155       -0.1761625357       -0.2874378254
 C          6.9578574498        0.2503207979       -0.3453204081
 C          7.3590232788        1.3830710948        0.3061603995
 C          6.4355658934        2.1414261115        1.0432537010
 C          5.1271842391        1.7546143074        1.1177101604
 C          4.6811983588        0.5896372227        0.4577192601
 C          3.3410057857        0.1638946867        0.5194076051
 C          0.4867780844       -0.4828736484       -0.0984017891
 C         -0.8128328488       -0.9173127626        0.0061838502
 H         -2.2915315478        4.1200866957        3.2199977201
 H         -2.0287272879        1.9071987563        4.2431971567
 H         -1.9155720056       -0.1259968961        2.8345683034
 H         -2.4484574884        4.3626549404        0.7671308987
 H         -2.5626328389        4.0525278772       -1.8311464142
 H         -2.6175824098        3.2389084987       -4.1623040762
 H         -2.4232189882        0.8450188937       -4.6558314844
 H         -2.1682624976       -0.8016733471       -2.8242638733
 H         -4.9492485624       -0.0047510280        0.0801125903
 H         -6.3763275072       -2.0049188292        0.3867699884
 H         -5.3724761529       -4.2305055789        0.6122846607
 H         -2.9208840514       -4.5197039011        0.5356292997
 H         -0.3084951869       -4.2564663377        0.3845073639
 H          2.0211342332       -3.4860375976        0.2080953844
 H          3.5238611650       -2.6160691812       -1.3828302667
 H          5.8724859276       -1.9191035104       -1.5194719279
 H          7.6651237831       -0.3369495558       -0.9141656489
 H          8.3895221262        1.7040613932        0.2589335814
 H          6.7701239413        3.0344569515        1.5510230805
 H          4.4122485069        2.3349157723        1.6839932728
 H          2.6418310430        0.7437209714        1.1058524778
 H          0.7060024792        0.5641379533       -0.2499946596
  57
  -86.1895425700000       0.196163587653795      !
 C         -2.7085443040        3.3696429313        2.3690262584
 C         -2.6096886140        2.1557190441        3.0321551929
 C         -2.3991761032        0.9765616094        2.3299111001
 C         -2.2905639042        1.0413158600        0.9583489443
 C         -2.3894140476        2.2658735345        0.2820915436
 C         -2.5993352041        3.4380648666        0.9893565235
 C         -2.2389838043        2.0187112224       -1.1433150591
 C         -2.2538623152        2.8806716545       -2.2274678857
 C         -2.0801947910        2.3528742275       -3.4969974687
 C         -1.8944639218        0.9912162104       -3.6832594344
 C         -1.8788046777        0.1209308673       -2.6013046677
 C         -2.0524852287        0.6424704005       -1.3382631086
 C         -2.0713810613       -0.0887870015       -0.0180483519
 C         -3.1313712344       -1.1604317091        0.0658458844
 C         -4.4926501272       -1.0296703225       -0.0967769547
 C         -5.2847127874       -2.1633173024        0.0280251066
 C         -4.7191323262       -3.3977267426        0.3101628178
 C         -3.3500495163       -3.5326611606        0.4748084941
 C         -2.5532694236       -2.4061528190        0.3515452819
 C         -1.1149353197       -2.2316940680        0.4608196069
 C         -0.0958436611       -3.1339453188        0.7191663556
 C          1.2087937141       -2.6750278054        0.7505206231
 C          1.5160789425       -1.3328023100        0.5235028943
 C          2.9131178537       -0.8780784983        0.5291010294
 C          3.8191960210       -1.3667777802        1.4958886609
 C          5.1216340760       -0.9606309801        1.5047037059
 C          5.6041523729       -0.0472728286        0.5438921672
 C          6.9456333890        0.3842138670        0.5192620217
 C          7.3764193211        1.2703885209       -0.4283197437
 C          6.4851580612        1.7641783828       -1.3940832360
 C          5.1786033082        1.3643687831       -1.3966496432
 C          4.7020439270        0.4517258214       -0.4319358319
 C          3.3626139848        0.0198236200       -0.4106421821
 C          0.4843272070       -0.4249778303        0.2702087265
 C         -0.8123541699       -0.8793471587        0.2431910310
 H         -2.8731604450        4.2738825251        2.9369361663
 H         -2.6987283229        2.1269424019        4.1081828627
 H         -2.3237184321        0.0303428495        2.8459665908
 H         -2.6759511214        4.3859949855        0.4773976463
 H         -2.3974511126        3.9418958563       -2.0873489018
 H         -2.0891623240        3.0105632826       -4.3541742222
 H         -1.7604080873        0.6027384186       -4.6822037058
 H         -1.7339735658       -0.9400386328       -2.7456404266
 H         -4.9329209216       -0.0674727451       -0.3156307534
 H         -6.3547336630       -2.0824294341       -0.0956679637
 H         -5.3559980244       -4.2655026882        0.4025940642
 H         -2.9137067241       -4.4960281486        0.6938111044
 H         -0.3127429323       -4.1785643547        0.8869641056
 H          2.0125595993       -3.3746933368        0.9286641928
 H          3.4605446010       -2.0565808320        2.2467451086
 H          5.8065913621       -1.3361150421        2.2525680978
 H          7.6283521023        0.0016303301        1.2648976946
 H          8.4059388400        1.5973760992       -0.4414829341
 H          6.8427833757        2.4632977902       -2.1357518475
 H          4.4887259555        1.7412837443       -2.1382286774
 H          2.6887009304        0.3898568401       -1.1702674769
 H          0.7043362541        0.6213990885        0.1151104114
  57
  -86.1894936700000       0.186271113938426      !
 C         -3.0236011172        3.1593769671        2.6321999530
 C         -2.8244739787        1.9123648949        3.2053591335
 C         -2.5348493097        0.8058273902        2.4180832044
 C         -2.4510642155        0.9761985568        1.0537319453
 C         -2.6518145726        2.2345641045        0.4680955481
 C         -2.9392101482        3.3340208521        1.2600052156
 C         -2.5051161212        2.1010292520       -0.9728285788
 C         -2.5977123153        3.0346071718       -1.9918372035
 C         -2.4029338516        2.6127949998       -3.2973527618
 C         -2.1218895726        1.2851464170       -3.5828720270
 C         -2.0276862500        0.3436599403       -2.5667721360
 C         -2.2206221753        0.7598834604       -1.2680258366
 C         -2.1564170058       -0.0607278346       -0.0032468618
 C         -3.1132282850       -1.2275786243        0.0233951242
 C         -4.4834746012       -1.2121239784       -0.1143761344
 C         -5.1673082045       -2.4192389541       -0.0540134872
 C         -4.4874166435       -3.6118507950        0.1426647657
 C         -3.1089814019       -3.6309574967        0.2824448130
 C         -2.4196256929       -2.4308819912        0.2216654916
 C         -1.0007626394       -2.1336716219        0.3199459658
 C          0.1018378474       -2.9540687452        0.4960719339
 C          1.3608567165       -2.3817768336        0.5199169906
 C          1.5405861595       -1.0051049207        0.3772918821
 C          2.8905276695       -0.4253167561        0.3752700717
 C          3.1420574984        0.7876920546        1.0540494210
 C          4.3855171200        1.3488662373        1.0484162151
 C          5.4541873214        0.7401628261        0.3566849187
 C          6.7469390183        1.3006013756        0.3203100679
 C          7.7563271946        0.6838464994       -0.3648307288
 C          7.5188502496       -0.5222632355       -1.0429720620
 C          6.2767432589       -1.0913821837       -1.0252155697
 C          5.2131999373       -0.4796395646       -0.3281528847
 C          3.9217041206       -1.0388081453       -0.2964700055
 C          0.4249566087       -0.1796333958        0.2166063195
 C         -0.8258811758       -0.7485908840        0.1861178281
 H         -3.2483282679        4.0057136188        3.2651417528
 H         -2.8959213362        1.8003002192        4.2773429561
 H         -2.3799943054       -0.1661430710        2.8639276988
 H         -3.0959967765        4.3070195403        0.8183619011
 H         -2.8147393012        4.0700003674       -1.7745187753
 H         -2.4697068808        3.3276533184       -4.1047156095
 H         -1.9729605745        0.9798848751       -4.6082369991
 H         -1.8071038201       -0.6906340667       -2.7880107844
 H         -5.0125749553       -0.2825766520       -0.2671973902
 H         -6.2419846860       -2.4293269078       -0.1617964889
 H         -5.0412175599       -4.5385088438        0.1867740709
 H         -2.5838545411       -4.5622652618        0.4352089556
 H         -0.0164081647       -4.0215404196        0.6100595567
 H          2.2275490288       -3.0094973185        0.6685880831
 H          2.3355714319        1.2577846161        1.5982028676
 H          4.5703615394        2.2737554496        1.5767953555
 H          6.9247596449        2.2296741913        0.8436509861
 H          8.7445300864        1.1196998444       -0.3905035938
 H          8.3282808423       -0.9958043550       -1.5794865614
 H          6.0890806535       -2.0198288518       -1.5461824021
 H          3.7439776163       -1.9571579798       -0.8384172946
 H          0.5463588821        0.8863185216        0.0885037851
  57
  -86.1859191200000       4.240295005637275E-003 !
 C         -2.6418023387        3.0317158486        2.8222343016
 C         -2.4119619786        1.7548004169        3.3120040899
 C         -2.2190010995        0.6858231582        2.4474458473
 C         -2.2602053477        0.9249463745        1.0916740627
 C         -2.4907103534        2.2132621428        0.5898219182
 C         -2.6825326594        3.2749015527        1.4587316655
 C         -2.4778685627        2.1502251911       -0.8632504851
 C         -2.6420482984        3.1370943090       -1.8209986978
 C         -2.5673432123        2.7821960671       -3.1584424896
 C         -2.3323402798        1.4682378889       -3.5344654069
 C         -2.1706811022        0.4728171047       -2.5798328381
 C         -2.2469261399        0.8213772203       -1.2492702943
 C         -2.1035249662       -0.0657569969       -0.0395763322
 C         -3.1244098049       -1.1746181359        0.0551724640
 C         -4.4972093105       -1.0777497768        0.0050358834
 C         -5.2462619616       -2.2392659067        0.1385480337
 C         -4.6270188613       -3.4658976954        0.3254783600
 C         -3.2458576486       -3.5660285055        0.3784013161
 C         -2.4915691914       -2.4125407386        0.2402663389
 C         -1.0528573396       -2.2011629615        0.2233166247
 C          0.0066860412       -3.0854678703        0.3405337976
 C          1.2977724252       -2.5965844382        0.2282935107
 C          1.5393654697       -1.2465021754       -0.0066258981
 C          2.9200635089       -0.7535110061       -0.2073072945
 C          3.3926804664       -0.5997070850       -1.5271547216
 C          4.6542201410       -0.1374560682       -1.7658568047
 C          5.5098052069        0.2096983326       -0.6992934243
 C          6.8116740699        0.7071648352       -0.9131515816
 C          7.6111239419        1.0473334410        0.1415891322
 C          7.1457879505        0.9019301113        1.4580644889
 C          5.8907847026        0.4172810393        1.6981053078
 C          5.0395830751        0.0595379399        0.6315776445
 C          3.7359298145       -0.4334161368        0.8459793560
 C          0.4745453841       -0.3518330015       -0.1002151147
 C         -0.8075980617       -0.8345626619        0.0232971720
 H         -2.7925772728        3.8471804812        3.5147247387
 H         -2.3847230039        1.5895089781        4.3790318828
 H         -2.0413708448       -0.3098340407        2.8277013116
 H         -2.8651598893        4.2706230439        1.0825177166
 H         -2.8216517312        4.1622036891       -1.5323320483
 H         -2.6906338306        3.5394175789       -3.9192267074
 H         -2.2734948626        1.2162973337       -4.5831801479
 H         -1.9883432671       -0.5511146961       -2.8726546394
 H         -4.9784528798       -0.1209368669       -0.1372939932
 H         -6.3242923805       -2.1860469732        0.0981086005
 H         -5.2309833086       -4.3556420919        0.4296491875
 H         -2.7685882833       -4.5241249740        0.5221002937
 H         -0.1673871434       -4.1383664919        0.5063932430
 H          2.1383661037       -3.2714415459        0.3067920992
 H          2.7348530224       -0.8573589640       -2.3450709831
 H          5.0142847259       -0.0242030254       -2.7788031822
 H          7.1636083747        0.8173754856       -1.9293214348
 H          8.6064192012        1.4311993217       -0.0291143476
 H          7.7906122043        1.1777536478        2.2798459060
 H          5.5289105437        0.3037960701        2.7103275895
 H          3.3799149488       -0.5495004134        1.8604281144
 H          0.6611850945        0.6985889024       -0.2730103569
