  129
       -197.92881721
 C          5.6372518804        1.7456225388        3.6588318112
 C          5.1657488530        3.0486063758        3.7153068847
 C          4.8486608428        3.7422580954        2.5546011764
 C          5.0299189119        3.1108940892        1.3438998076
 C          5.5225196522        1.7980771754        1.2809842668
 C          5.8205837843        1.1064392767        2.4430666338
 C          5.6379218922        1.4142119080       -0.1170664084
 C          6.0611931222        0.2375077657       -0.7119316704
 C          6.0837313854        0.1644315026       -2.0954059726
 C          5.6948016335        1.2447647788       -2.8728252090
 C          5.2533923402        2.4222563901       -2.2843588248
 C          5.2285486996        2.4959251478       -0.9093574762
 C          4.7050128746        3.6150392213       -0.0377847085
 C          5.1664393096        4.9967337624       -0.4091123914
 C          6.4420812221        5.5139631553       -0.3667458465
 C          6.6398328260        6.8249057659       -0.7807767302
 C          5.5785268982        7.5951868850       -1.2319104878
 C          4.2933321227        7.0792937369       -1.2783144735
 C          4.0865175540        5.7737886074       -0.8632756278
 C          2.8764050336        4.9729260032       -0.7901839840
 C          1.5580928488        5.2340665056       -1.1327879178
 C          0.6099587975        4.2413514670       -0.9570180724
 C          0.9439483092        2.9909682057       -0.4306516722
 C         -0.0568463323        1.9328720124       -0.2475229924
 C         -1.3779139172        2.2437741515        0.1078325327
 C         -2.3184104088        1.2199642301        0.2916484421
 C         -3.6999663848        1.5421501530        0.6741714808
 C         -3.9612569543        2.5408229151        1.6139535641
 C         -5.2510550539        2.8389502719        2.0138901918
 C         -6.3036214922        2.1276148400        1.4598470734
 C         -6.0468918061        1.1307033992        0.5065746868
 C         -4.7651469715        0.8330779154        0.1119851602
 C         -7.3344727263        0.4893207030        0.0484409803
 C         -7.3554859736       -1.0038588228        0.2692639422
 C         -7.1939566511       -1.6951877186        1.4497281889
 C         -7.2378826316       -3.0826121145        1.4140047381
 C         -7.4389524459       -3.7563526615        0.2185882643
 C         -7.6013531132       -3.0636586398       -0.9706444727
 C         -7.5583915699       -1.6794575024       -0.9428410104
 C         -7.6877724715       -0.6931567622       -2.0039953349
 C         -7.9013068510       -0.8372912360       -3.3648896048
 C         -7.9836151978        0.3031484941       -4.1476720276
 C         -7.8550440192        1.5642127092       -3.5852313634
 C         -7.6407685978        1.7165525119       -2.2218518297
 C         -7.5590863514        0.5848231602       -1.4409682662
 C         -8.3596858647        1.2411773938        0.8618232876
 C         -9.7278471548        1.0846002699        0.8677286256
 C        -10.4823885201        1.8962098191        1.7047996129
 C         -9.8731238842        2.8420214126        2.5158885284
 C         -8.4970768403        3.0029396214        2.5120203396
 C         -7.7374338544        2.1972730689        1.6791619210
 C         -1.9376586249       -0.0959582794        0.1388972427
 C         -0.6022370665       -0.4572092551       -0.1903117155
 C         -0.1877062751       -1.8113333965       -0.2511838163
 C         -1.1441821424       -2.8852050409       -0.3573753712
 C         -0.7900942297       -4.1917656990       -0.3074497209
 C          0.5770085922       -4.5409151227       -0.1308718859
 C          1.5568627830       -3.4812241708       -0.0908528297
 C          1.2016312666       -2.1804775552       -0.1581304680
 C          2.9329962074       -4.0764859684        0.0780388536
 C          3.7392108580       -3.5605863901        1.2434187531
 C          3.3551038314       -3.4240404018        2.5594882610
 C          4.2884603795       -2.9602242845        3.4768268421
 C          5.5828499672       -2.6565579308        3.0821099525
 C          5.9735742056       -2.7929067530        1.7594477079
 C          5.0426868018       -3.2382978315        0.8350256148
 C          5.1405968857       -3.4458844853       -0.6005916095
 C          6.2019708684       -3.2904318502       -1.4767238054
 C          5.9930192214       -3.5443450417       -2.8229599408
 C          4.7493207038       -3.9448723601       -3.2879795535
 C          3.6867936371       -4.1240023909       -2.4127128654
 C          3.8911272492       -3.8746789610       -1.0733825812
 C          2.6199270971       -5.5530382826        0.2089626768
 C          3.4813513813       -6.5920859939        0.4244696089
 C          2.9662497161       -7.8904310723        0.4860555598
 C          1.5962620607       -8.1234756601        0.3250316046
 C          0.7163723145       -7.0927787277        0.1086539367
 C          1.2159067904       -5.7724098178        0.0486307420
 C          0.3082550344        0.6115375664       -0.4028948672
 C          2.2717434603        2.7395921074       -0.0737919312
 C          3.2136544304        3.7168225824       -0.2691009276
 H          5.8657017215        1.2227160207        4.5763147513
 H          5.0378070974        3.5286174801        4.6745201488
 H          4.4703624438        4.7534161129        2.5993621179
 H          6.1809231166        0.0895489504        2.4024332084
 H          6.3566966112       -0.6075957792       -0.1099015094
 H          6.4029342763       -0.7483529952       -2.5757323623
 H          5.7265174158        1.1657415621       -3.9495779981
 H          4.9342134938        3.2592150904       -2.8886378205
 H          7.2691469170        4.9127058099       -0.0179944685
 H          7.6326610770        7.2494064208       -0.7521603386
 H          5.7573325256        8.6118339873       -1.5509019543
 H          3.4698676772        7.6831913058       -1.6299475584
 H          1.2740474949        6.1920105153       -1.5431473763
 H         -0.4103230457        4.4301635629       -1.2575762458
 H         -1.6744130961        3.2720920904        0.2397744518
 H         -3.1318899827        3.0725111170        2.0573952981
 H         -5.4315346954        3.6077931626        2.7506369697
 H         -4.5822047693        0.0740397407       -0.6349259822
 H         -7.0366006070       -1.1695058910        2.3804828945
 H         -7.1131637536       -3.6438380354        2.3284347804
 H         -7.4691167571       -4.8363769143        0.2155318610
 H         -7.7567300601       -3.5929557105       -1.8991547673
 H         -8.0026819557       -1.8171717431       -3.8075985040
 H         -8.1507306760        0.2096516292       -5.2109605162
 H         -7.9224730333        2.4387434437       -4.2155237929
 H         -7.5404138678        2.6986724846       -1.7828584834
 H        -10.2021494213        0.3478577747        0.2356116388
 H        -11.5570316907        1.7897442753        1.7240612383
 H        -10.4810901873        3.4613925772        3.1593516586
 H         -8.0268461870        3.7402106190        3.1458572513
 H         -2.6605695176       -0.8664245852        0.3542042098
 H         -2.1811453097       -2.6329535042       -0.5151446877
 H         -1.5306341683       -4.9723927280       -0.3994593208
 H          1.9590813446       -1.4156059212       -0.0846174678
 H          2.3496248176       -3.6698420655        2.8688772124
 H          4.0050728894       -2.8397674102        4.5120518920
 H          6.2952566455       -2.3105613321        3.8175758797
 H          6.9860098400       -2.5616467392        1.4593175691
 H          7.1746680446       -2.9833656480       -1.1206794220
 H          6.8099535983       -3.4303628841       -3.5214290144
 H          4.6088721905       -4.1299825244       -4.3428265268
 H          2.7226699307       -4.4530682257       -2.7723150159
 H          4.5411004952       -6.4182716279        0.5454767034
 H          3.6323756017       -8.7218591606        0.6572521083
 H          1.2303828724       -9.1391371357        0.3746166879
 H         -0.3403363952       -7.2755576562       -0.0138821843
 H          1.3049566961        0.3870334890       -0.7468816218
 H          2.5555570544        1.7939881282        0.3640601036
