92
 energy: -140.909072528081 gnorm: 0.000072229623 xtb: 6.7.1 (edcfbbe)
C           -4.02030359691194       -7.72862814760193       -1.59288746613965
C           -3.49177690031302       -8.62645181065882       -0.65074014920695
N           -2.71462236462647       -8.17548962403415        0.32903846762729
C           -2.36035626791702       -6.93328854916463        0.41020609093635
C           -2.74655722996790       -5.93143901529815       -0.54108613124608
C           -2.36442182085862       -4.57984776336104       -0.39945747957252
C           -3.04205604835940       -3.52294552630075       -1.08762901880658
C           -2.62034525890282       -2.22986800785921       -1.00442632344553
C           -1.51535275765143       -1.84837307234433       -0.21375758430252
Si          -0.97572565245489       -0.06701523214674       -0.01539137621913
C           -1.60025431674899        0.70063148554960        1.60735351107034
C           -1.80856981289924        2.07425424088648        1.71877662521167
C           -2.27700985061532        2.63772462748769        2.88838901612718
C           -2.55336568546993        1.84004990748880        3.99926421822125
C           -3.04645009647305        2.43168676055939        5.24594453870897
C           -2.63019564829649        1.97098719174277        6.49726548661482
C           -3.12727340104669        2.56664261591452        7.64221713956719
C           -4.02817833063634        3.61301244908196        7.50641996285258
N           -4.43795467223578        4.05753423800400        6.32834309821299
C           -3.96449510207227        3.48571016672178        5.23876342130555
C           -2.35097753082128        0.46356068074290        3.89306573923602
C           -1.88917383818711       -0.09071952558939        2.71619985232838
C           -1.63025102200057        0.98814901700538       -1.44647001666581
C           -0.80516179568019        1.42637206378486       -2.47781032279448
C           -1.30109819742325        2.18313655114734       -3.52089700812848
C           -2.65006565981461        2.53477057662560       -3.56386389603237
C           -3.18219812335981        3.34072389187579       -4.66661913497740
C           -4.13433379382187        4.34079011402273       -4.45817686624764
C           -4.60179721862467        5.07063137119970       -5.53627416061318
C           -4.09993061181603        4.78326701056909       -6.79734913784531
N           -3.20132447500759        3.83493778145149       -7.01262224195997
C           -2.76058128997559        3.13834300116826       -5.98355835733200
C           -3.48201035374949        2.10154128513836       -2.53134975950309
C           -2.97642912985442        1.34173581126578       -1.49588710686423
C            0.92440047042997        0.00092607346436       -0.00161937686152
C            1.66208367638710       -0.79999686439635       -0.87028292880360
C            3.04220788622045       -0.76377824951330       -0.88720439586329
C            3.72382407352579        0.08246710017024       -0.01542766655690
N            5.12566070451533        0.12220523421607       -0.02091223434321
C            5.90014667440972        1.26098992597611       -0.10499143913681
C            5.51006286977569        2.58618465856273       -0.24924057405186
C            6.50295436779143        3.54445305266964       -0.33686783187012
C            7.85178419316812        3.19937284535848       -0.29388036593181
C            8.24637175733814        1.87848154010166       -0.17607996559683
C            7.26810357235517        0.89937681370031       -0.08347436266329
C            7.30828623533247       -0.53493857143048        0.02696192443907
C            8.33986674120641       -1.45837547440257        0.11226565998829
C            8.01988552051509       -2.79912720582141        0.23233124576022
C            6.69257599724411       -3.21848869202717        0.28413106729597
C            5.64759595737383       -2.31666938654601        0.20378824050551
C            5.96264776983185       -0.97181765901462        0.05772936012698
C            3.00225310063163        0.88556762384183        0.86424352274013
C            1.62158099182867        0.83873204292649        0.86341011369925
C           -0.83512609415192       -2.88692701133847        0.46404420884042
C           -1.24522649153094       -4.18396041484615        0.39770733831730
C           -3.63548883821942       -6.41895609949651       -1.55676641311904
H           -4.66867274636105       -8.10110064366004       -2.37172742822256
H           -3.66908228296323       -9.68893166810185       -0.69090309046636
H           -1.82012300703587       -6.65613225334847        1.30443079749065
H           -3.90677240698816       -3.75855842021296       -1.68951355702940
H           -3.14989479456683       -1.46451612946810       -1.55483455076740
H           -1.59488071965901        2.71120413950375        0.87170447382100
H           -2.40970880375262        3.70846001236752        2.95486360436841
H           -1.90972937612914        1.16851604656119        6.56597192431743
H           -2.81851194510568        2.23344330197601        8.62122299249402
H           -4.44249750455602        4.11949926639467        8.36813600970226
H           -4.35091384537286        3.87571189547564        4.30553464188156
H           -2.58180065406285       -0.17663683646474        4.73285820629687
H           -1.75174493895642       -1.16041378712547        2.65120457188672
H            0.24509109668275        1.17353154923983       -2.45905605358609
H           -0.63617659007403        2.52692207672722       -4.30062236825415
H           -4.48619844181746        4.55279598176547       -3.45859566799329
H           -5.33458197839665        5.85170078385720       -5.40325725225661
H           -4.42457572174553        5.32820993389185       -7.67394536852465
H           -2.04347281821900        2.36260973754411       -6.22094541455102
H           -4.53464459070354        2.34662843069484       -2.55438366608859
H           -3.63695838889411        1.01843192529794       -0.70342528443292
H            1.14068582957042       -1.45934977322160       -1.54908169388758
H            3.59920878800708       -1.37274153823914       -1.58427946625425
H            4.46758416922406        2.86046087786232       -0.30204076502445
H            6.22617093486236        4.58279231136998       -0.44509134235286
H            8.59818673928920        3.97666135236305       -0.36402645630770
H            9.29237283423776        1.61229724365396       -0.15991253910685
H            9.36942707634885       -1.13482354221197        0.08873264202659
H            8.80875782993030       -3.53376369415380        0.29703747775584
H            6.47431070548282       -4.27054313068018        0.39352091767290
H            4.62233012131012       -2.64848272371978        0.26309829689550
H            3.52933866624463        1.52496498652814        1.55735932741102
H            1.07164262358805        1.45875156917366        1.55611789994502
H            0.02694408419774       -2.63130035708693        1.06534232173458
H           -0.69674537990126       -4.93812085093719        0.94287144304904
H           -3.96101767294267       -5.74851524894872       -2.33701707087774
