92
 energy: -141.013134293325 gnorm: 0.000058082361 xtb: 6.7.1 (edcfbbe)
C           -4.41189060196086       -7.66949188519950       -0.20870801969079
C           -3.39017858965660       -8.60720083590783       -0.23578105341895
N           -2.10816669411460       -8.27772703501938       -0.23940233326856
C           -1.79190020686002       -6.99653150082753       -0.20997060695658
C           -2.72857047783108       -5.96153807283053       -0.17281519483338
C           -2.31060410288945       -4.55480664678500       -0.13860856643080
C           -2.97617238429248       -3.59613403832211       -0.90001588201004
C           -2.57739096017012       -2.27384447903154       -0.86853171793349
C           -1.51090104794424       -1.85988616790612       -0.07616737306992
Si          -0.97350414642468       -0.04361953796136        0.00407977310374
C           -1.67170802620645        0.77194180407938        1.56678446726738
C           -1.73469317288057        2.15967842009186        1.67154297661552
C           -2.23003239885768        2.77230023535889        2.80558593932085
C           -2.69025815093033        2.00950221897028        3.87775554337368
C           -3.23123229959953        2.65606703747833        5.07942334874608
C           -2.64458701354257        3.79537184110983        5.62988662415443
C           -3.19992395293387        4.36426660114668        6.76268461574525
C           -4.32649747209714        3.77249948678572        7.31456086909134
N           -4.89944700276265        2.69449586723524        6.80281191391733
C           -4.36802511246288        2.15848698135974        5.71999680931615
C           -2.63469071515113        0.62061088533446        3.77884135476909
C           -2.13052004872223        0.01766081065643        2.64269674817237
C           -1.63380277966712        0.89714209696465       -1.50399104947451
C           -0.82773787957191        1.18092211014421       -2.60239070472527
C           -1.32521819456944        1.85123812342240       -3.70316766919831
C           -2.65785668285717        2.25667703710954       -3.74291013035005
C           -3.19367306500210        2.96176730789346       -4.91353561834686
C           -2.46084892658485        3.94353946478420       -5.58010438070666
C           -3.01703621505659        4.57743779641186       -6.67734457808594
C           -4.29467041190242        4.21156693271007       -7.07438195826898
N           -5.00180286204315        3.27741267531397       -6.45836126668211
C           -4.46497346070707        2.67362033206375       -5.41459550695189
C           -3.47178149963038        1.97734698555724       -2.64621347004711
C           -2.96284483634459        1.31297827246876       -1.54785118728711
C            0.92125872098329        0.01298344265531        0.02866184923027
C            1.65916234769914       -0.81459468257254       -0.81476602066849
C            3.03962926055620       -0.77919133418360       -0.83117687387229
C            3.72197276802267        0.08743644365852        0.01855410731321
N            5.12452386857414        0.12428806635805        0.01371768429402
C            5.90250169448787        1.25898089437684       -0.10194538954806
C            5.51749787398576        2.58005978566493       -0.28471495565024
C            6.51213080328963        3.53259390262434       -0.39899879874227
C            7.86107315337562        3.18668662780133       -0.34421859744083
C            8.25056917288765        1.87128570296585       -0.18706403121155
C            7.26896876430438        0.89533767662017       -0.06886280289539
C            7.30710705719963       -0.53292693931589        0.08020420518400
C            8.33965317393475       -1.45593716896989        0.18962411462565
C            8.02128722473615       -2.79024228959056        0.34734799515723
C            6.69289052526032       -3.20694600922006        0.41111918342405
C            5.64868104149855       -2.30792250817223        0.30617642470871
C            5.96203257703511       -0.96809085559564        0.12307533255065
C            2.99984252665604        0.91406099951457        0.87457521535071
C            1.61870451660770        0.87537500329679        0.86915659899293
C           -0.84923456002754       -2.82464730698445        0.68051031556641
C           -1.23605372474787       -4.14987754590328        0.65153641369471
C           -4.07427114408459       -6.32785331157957       -0.17630995822570
H           -5.44462424349036       -7.98289999391593       -0.20721219731312
H           -3.59882971139854       -9.66908145719998       -0.25501009473092
H           -0.73093080203690       -6.78094215761592       -0.23343566551293
H           -3.79695811578846       -3.89564301069798       -1.53625010294461
H           -3.10027695658229       -1.54770250459105       -1.47396320569455
H           -1.39492488817589        2.76812416734563        0.84525420446376
H           -2.28433974936886        3.85070103284517        2.85500339606829
H           -1.75412455011007        4.21572352702966        5.18438827425491
H           -2.76597910462978        5.24396324022922        7.21287922461437
H           -4.79573668961892        4.17211426719109        8.20428438584197
H           -4.88614599889093        1.29107847346588        5.33037632216536
H           -2.97257374480223        0.01365716727312        4.60673833961626
H           -2.09570127960718       -1.06063846333117        2.58622029922461
H            0.20788235790855        0.87352720221366       -2.59244162665701
H           -0.68277494485205        2.04492744226040       -4.55054970703939
H           -1.47606273013819        4.21699495931837       -5.22886924268888
H           -2.47518702493383        5.34373205966677       -7.21023761593188
H           -4.77906788718559        4.68152419807631       -7.92052859881136
H           -5.07660377182798        1.90424710861700       -4.96005640677040
H           -4.50241735426286        2.30283268948598       -2.65069546800157
H           -3.60642554886792        1.11598631425954       -0.70197478522461
H            1.14050190889346       -1.49690256688372       -1.47295874294070
H            3.59720728215924       -1.41125459651833       -1.50702002459501
H            4.47554894068041        2.85627558216533       -0.34538394911356
H            6.23806927435369        4.56844727577587       -0.53801090564982
H            8.60893963239756        3.96090945284831       -0.43529353055860
H            9.29598793531669        1.60174373138905       -0.16079652942006
H            9.36920237203687       -1.13166151641755        0.15599846331106
H            8.80962514148979       -3.52402685617144        0.43133449533006
H            6.47464656729619       -4.25600330259983        0.54966131401887
H            4.62340167528315       -2.63926687383332        0.37378434919344
H            3.52776051531563        1.57194861542965        1.54957687950113
H            1.06954416472518        1.51843956801145        1.54112662665384
H           -0.01500951672582       -2.52886006897950        1.30099616110528
H           -0.71791925360252       -4.87783278955949        1.25964862656896
H           -4.84249015099868       -5.56879563470618       -0.13459069002063
