  79
       -122.03840104
 C          5.4228516983       -0.6851076735        3.4321112715
 C          4.5302700036       -1.1439686002        2.3184140375
 C          3.9741188537       -2.4239142386        2.3592517833
 C          3.1421522926       -2.8908483437        1.3569608446
 C          2.8650681503       -2.0628334884        0.2806677660
 C          2.0561252229       -2.1900613547       -0.9003570349
 C          1.2396793048       -3.1860635423       -1.4096035380
 C          0.6021515497       -2.9670042761       -2.6161304716
 C          0.7760320181       -1.7825712957       -3.3460844632
 C          0.0560084721       -1.6093546074       -4.6486266548
 C          1.5886186033       -0.7813072917       -2.8505961260
 C          2.2009165705       -0.9737049564       -1.6145840609
 N          3.0403095178       -0.1387000694       -0.9315808808
 C          3.3110454894        1.2089296419       -1.2245099565
 C          4.6193861861        1.5996154135       -1.4437056731
 C          4.9419363089        2.9297328663       -1.6655434684
 C          3.9328854159        3.8943552762       -1.6420017630
 C          2.6313934713        3.5340737968       -1.4086332189
 C          2.2716665319        2.1838196975       -1.1940766458
 C          0.9425405136        1.8514466022       -0.8622448697
 N          0.3685446450        0.6568038649       -0.8788073166
 N         -0.8607624282        0.7746439950       -0.4936792525
 C         -1.0967219105        2.0503454718       -0.1971281196
 C         -2.2850942411        2.5673714379        0.3456680287
 C         -2.5527635897        3.9542316179        0.3731428346
 C         -3.7558076909        4.4277681431        0.8272401800
 C         -4.7451210095        3.5476365512        1.2755775584
 C         -4.4936428212        2.1839327612        1.2963363863
 C         -3.2799579887        1.6819700536        0.8649140008
 N         -3.0121651749        0.3091220585        0.9482054510
 C         -3.7093902673       -0.6839963019        0.3125050233
 C         -4.8666115073       -0.5919399378       -0.4529360958
 C         -5.3832489264       -1.7464541328       -1.0128228217
 C         -6.6325106843       -1.7056544743       -1.8399036396
 C         -4.7348711709       -2.9732877696       -0.8099565601
 C         -3.5747754009       -3.0730155850       -0.0676080152
 C         -3.0485788238       -1.9243971060        0.5045036377
 C         -1.8896489025       -1.6473389831        1.3045811443
 C         -0.8595374721       -2.4256413757        1.8123322147
 C          0.1198342552       -1.8158720438        2.5706297089
 C          0.0863286579       -0.4478190017        2.8562891082
 C          1.1881283278        0.1607291860        3.6688464024
 C         -0.9482051477        0.3365201882        2.3690060525
 C         -1.9060698785       -0.2590193928        1.5623248736
 O          0.0179638712        2.8131275256       -0.4792460279
 C          3.4484034496       -0.7770220398        0.2252803311
 C          4.2662462465       -0.3082269933        1.2394179546
 H          6.3991130763       -1.1651789304        3.3514099018
 H          5.5683344319        0.3921473131        3.3963430272
 H          5.0002008498       -0.9518998916        4.3996701599
 H          4.1988161179       -3.0590889443        3.2041289673
 H          2.7134508773       -3.8800968740        1.4127382297
 H          1.1039798942       -4.1137028684       -0.8742994696
 H         -0.0477668171       -3.7301864992       -3.0198093834
 H         -1.0011041198       -1.4193176574       -4.4616383960
 H          0.1322188971       -2.5093055690       -5.2565668051
 H          0.4602039098       -0.7697751230       -5.2083579407
 H          1.7337945654        0.1409497121       -3.3928812738
 H          5.3916775920        0.8433793846       -1.4494877210
 H          5.9646046362        3.2144832128       -1.8561711216
 H          4.1825826731        4.9320819414       -1.8070448678
 H          1.8481623820        4.2761634072       -1.3821810799
 H         -1.7893886259        4.6269563763        0.0132671770
 H         -3.9464493837        5.4908660143        0.8372708686
 H         -5.6907017128        3.9280480077        1.6283333251
 H         -5.2336432783        1.4999555060        1.6870057507
 H         -5.3448927452        0.3630128663       -0.6128995152
 H         -7.3997008727       -2.3418172944       -1.3995009408
 H         -6.4340773371       -2.0741412241       -2.8456493782
 H         -7.0198032105       -0.6927097081       -1.9114038742
 H         -5.1587672231       -3.8600727256       -1.2589448662
 H         -3.0837731628       -4.0253112493        0.0633751345
 H         -0.8248252778       -3.4862970172        1.6152702466
 H          0.9389268726       -2.4018019964        2.9604536011
 H          2.1127106425        0.1650213729        3.0898356976
 H          1.3662644713       -0.4199576253        4.5728240652
 H          0.9494304153        1.1839534740        3.9480818175
 H         -0.9889770927        1.3943486099        2.5863871822
 H          4.6862716009        0.6863016912        1.1953421538
