  82
       -118.42968388
 C        -10.0694591689        0.0203687497        1.1517242209
 C         -9.1311055408        0.0433108862       -0.0685605059
 C         -9.9509990577        0.0975799130       -1.3707507581
 C         -8.2620459751        1.2844987453        0.0051715094
 C         -8.8598521760        2.5371042129        0.0184243650
 C         -8.1199533879        3.7042197842        0.0597275676
 C         -6.7393140020        3.6284141794        0.0766181014
 C         -6.1190258786        2.3970696784        0.0650379366
 C         -6.8654137925        1.2152488319        0.0421842126
 N         -6.2140295325       -0.0079436897        0.0399525680
 C         -4.7936390497       -0.0322952181        0.0529098136
 C         -4.1017451455        0.1623641569        1.2440175438
 C         -2.7221491657        0.1483995191        1.2538479479
 C         -2.0140082038       -0.0643689498        0.0686065376
 C         -0.6039911184       -0.0706619768        0.0705080318
 C          0.6039658899       -0.0682781037        0.0637993109
 C          2.0138962750       -0.0604203411        0.0487950487
 C          2.7310594411        0.2088741430        1.2169366785
 C          4.1104144079        0.2231663778        1.1952348517
 C          4.7931039577       -0.0284315697        0.0095881425
 N          6.2137093714       -0.0068956877       -0.0103439425
 C          6.8652375121        1.2142483675       -0.0743193317
 C          6.1180499389        2.3930648933       -0.1550356979
 C          6.7376331420        3.6234544324       -0.2130598068
 C          8.1183321448        3.7005417875       -0.1966498310
 C          8.8593781154        2.5350526188       -0.1328862822
 C          8.2622826650        1.2834116419       -0.0753659534
 C          9.1324921655        0.0420844550       -0.0203343039
 C         10.0033709101        0.1076917653        1.2475322140
 C         10.0216440574        0.0062444105       -1.2767454750
 C          8.3046790839       -1.2282650705        0.0269008601
 C          8.9439082980       -2.4593896307        0.0722716997
 C          8.2428869360       -3.6495189923        0.1343791885
 C          6.8605495176       -3.6189800315        0.1630722390
 C          6.1995631519       -2.4097165760        0.1190024154
 C          6.9060642983       -1.2059973362        0.0394618423
 C          4.0835117024       -0.2987374264       -1.1560529965
 C          2.7043008137       -0.3161426628       -1.1386014174
 C         -2.7137074604       -0.2658448825       -1.1237988345
 C         -4.0928171957       -0.2477047930       -1.1294541662
 C         -6.9064207100       -1.2072526334       -0.0062937748
 C         -6.2013359629       -2.4139941056        0.0278422169
 C         -6.8616043561       -3.6233816097       -0.0237895041
 C         -8.2420062354       -3.6513502723       -0.1049487727
 C         -8.9422726857       -2.4592823356       -0.1201034761
 C         -8.3037266111       -1.2280329147       -0.0674091403
 H        -10.6886406112        0.9125200529        1.1827362512
 H         -9.4834806047       -0.0231144313        2.0679929238
 H        -10.7240376175       -0.8462581774        1.1222949611
 H        -10.5703387557        0.9897213274       -1.4026676832
 H        -10.5985814987       -0.7704689124       -1.4580153187
 H         -9.2813703779        0.1141341749       -2.2287709193
 H         -9.9365716366        2.6112582288       -0.0064266940
 H         -8.6178120485        4.6618269016        0.0715732643
 H         -6.1409886369        4.5270926253        0.0965505124
 H         -5.0409484773        2.3472727233        0.0690720595
 H         -4.6561556565        0.3286017667        2.1559251753
 H         -2.1804571739        0.3000933602        2.1756808987
 H          2.1965891681        0.4043697034        2.1347427766
 H          4.6721241170        0.4327116652        2.0936086970
 H          5.0401549983        2.3407929693       -0.1760822511
 H          6.1389507670        4.5201902015       -0.2730079813
 H          8.6156634883        4.6575823063       -0.2386727137
 H          9.9364012297        2.6098578193       -0.1281751280
 H         10.6459984143       -0.7651662570        1.3227727893
 H          9.3680898278        0.1433332849        2.1307455327
 H         10.6315590672        0.9942507089        1.2407197188
 H          9.4004604024       -0.0605200403       -2.1678590474
 H         10.6288939064        0.9039959857       -1.3496027478
 H         10.6868069819       -0.8523687440       -1.2576032523
 H         10.0227889523       -2.4977225768        0.0607646168
 H          8.7723485598       -4.5895484357        0.1663329231
 H          6.2927755087       -4.5356885619        0.2222288137
 H          5.1207562157       -2.3938027635        0.1501910222
 H          4.6242903363       -0.4956752331       -2.0699447798
 H          2.1484549654       -0.5238284480       -2.0408919515
 H         -2.1651281320       -0.4303566739       -2.0393326798
 H         -4.6408772300       -0.4016942484       -2.0473384944
 H         -5.1244213141       -2.4004251558        0.0998692317
 H         -6.2950089376       -4.5423437984        0.0021133993
 H         -8.7707500597       -4.5912988186       -0.1495842449
 H        -10.0198901208       -2.4961583468       -0.1749749887
