91
 energy: -139.457394827147 gnorm: 0.000039967724 xtb: 6.7.1 (edcfbbe)
C            1.02663718473432       -3.57683708583280        3.60770083301580
C            0.55335881387680       -2.28903192047225        3.80592271934111
C            0.32544614949752       -1.44086663147569        2.72989493615222
C            0.59276587935560       -1.90573675181027        1.46232785659690
C            1.07603430898145       -3.20738173071769        1.25500094494382
C            1.29383033516467       -4.04921042123514        2.33215861875643
C            1.30414118528606       -3.39490008062568       -0.17169928020173
C            1.81124292451548       -4.46972878222177       -0.88099175191417
C            1.97091912521283       -4.34247235261179       -2.25242637986713
C            1.63289187366838       -3.16606800250492       -2.90254838093898
C            1.11489752167545       -2.08631840261357       -2.19824919144755
C            0.95808054884326       -2.20669447080768       -0.83652299310348
C            0.36818182503372       -1.20345196159380        0.13460455317613
C            1.01065904382360        0.15965583840888        0.03714317263384
C            0.23133771807726        1.30213101907558       -0.05444620563686
C            0.84922662594127        2.54477948155005       -0.33383007294658
C            2.19647513400454        2.65464438669395       -0.46594938571263
C            3.02660991819210        1.53306549303559       -0.26444731201072
C            4.42463781812820        1.65803276198167       -0.33717934925503
C            5.25675923590614        0.58509111726579       -0.12644435962889
C            6.71652537710705        0.71709590313049       -0.21392694416935
C            7.47845495210223       -0.29979885663445       -0.83110930841028
C            8.83510574770466       -0.19672212393661       -0.92980496931116
C            9.51772834121360        0.92384389511052       -0.41094885937051
C           10.91834679316211        1.05828269454577       -0.49257206066387
C           11.54534676402248        2.15846559164359        0.02222820759779
C           10.79963264316123        3.17362943772886        0.64214946623430
C            9.44030887016668        3.07240423765503        0.73684508447597
C            8.76242794722117        1.95039853046851        0.21434101421416
C            7.36315435651691        1.81881227112868        0.29449065293086
C            4.66801653667372       -0.65384233863764        0.19524198650439
C            3.31268133124687       -0.80264197335289        0.26400799578343
C            2.43056521655348        0.27152648753230        0.00872833370144
C           -1.22084725083370        1.24786691862003        0.09190474011178
C           -1.98413896225056        2.37562762947541        0.31355396028235
C           -3.37765988516935        2.31478107134513        0.34937926325675
C           -4.04355064531784        1.13324726620476        0.13650239771809
C           -5.52023590649306        1.12043887942864        0.11926160610232
C           -6.20586280710966        1.39128009984123        1.25952286465777
C           -7.62607518128590        1.37946072176839        1.30282157820553
C           -8.30175145396552        1.64711402767594        2.50460944000687
C           -9.67080193839169        1.62388558644644        2.56281307010239
C          -10.40373723515624        1.32739154998394        1.41308163944982
C           -9.76340351837246        1.06442765001981        0.22701951314260
C           -8.36282730427113        1.08500834859232        0.13197184488189
C           -7.64767073002066        0.82959322409370       -1.09555592405325
C           -8.30204086258592        0.56448702237969       -2.30976269301319
C           -7.60258902667745        0.34436172913809       -3.47004176585202
C           -6.20887015104931        0.38798576955060       -3.46923279955222
C           -5.53828892542196        0.64114025787384       -2.30085043615316
C           -6.23222780885595        0.85425858737448       -1.09791055798698
C           -3.29843760564257       -0.06540356770194       -0.01653491236520
C           -3.93546136156829       -1.31480033204359       -0.14450952741519
C           -3.19533273387774       -2.45858229049978       -0.24858289018420
C           -1.80062724430445       -2.40553784998557       -0.19120141398018
C           -1.13982397719039       -1.20606741968780       -0.06033360303695
C           -1.87862747340634       -0.00786880921791        0.00041792834197
H            1.19183642118368       -4.22016794816700        4.45966180857520
H            0.35676758963232       -1.94151361453557        4.80944751076344
H           -0.04954421118513       -0.43928080496609        2.88299476951686
H            1.66554727172990       -5.05229016733637        2.18329557572633
H            2.07899102384148       -5.38732361922369       -0.37809232970849
H            2.36744807024431       -5.17057563081064       -2.82172223031995
H            1.77179403417491       -3.08817643697949       -3.97078188531229
H            0.84773056975175       -1.17098962214994       -2.70602313408450
H            0.23397394321717        3.41644566744863       -0.48857145568125
H            2.65081757708676        3.60322258115550       -0.71402651145612
H            4.83896749832315        2.62668028807557       -0.57958368048539
H            6.96614758151700       -1.15550035588994       -1.24666671189714
H            9.40938256342839       -0.97590456430780       -1.41134370564648
H           11.48801322865294        0.27363990535519       -0.97054289234170
H           12.61931018111105        2.25533715233988       -0.04340734881660
H           11.31179295904655        4.03588927336766        1.04397092811413
H            8.86225800220604        3.85167416461936        1.21347377351844
H            6.79850195082202        2.59735044439052        0.78817319827919
H            5.30681626842657       -1.49562673440119        0.42022138041035
H            2.92422984050738       -1.76115948213122        0.55331300300673
H           -1.51858867651231        3.33595420181348        0.46976367596706
H           -3.94302122314474        3.22160734462780        0.51153398443192
H           -5.66807665170752        1.60203725984733        2.17389413462309
H           -7.71874232442013        1.87110949909366        3.38686659556064
H          -10.18405980235750        1.83075720787856        3.49039421491969
H          -11.48288728967181        1.30498405066708        1.45815296865463
H          -10.36179815944988        0.83780010402263       -0.64123358155028
H           -9.37953316316535        0.53559443927853       -2.34453547579645
H           -8.13307419127631        0.14316825926262       -4.38938408530661
H           -5.66289564565283        0.22540229988162       -4.38678231492628
H           -4.45921060607361        0.68283861685204       -2.29516323738329
H           -5.01417026228849       -1.35636912611643       -0.14755791003110
H           -3.68260327382856       -3.41687189689045       -0.35141052547967
H           -1.24603530751653       -3.33073552773922       -0.23324388060587
