  50
  -80.4808605437000       0.234898589217895      !
 C          4.0026198519        3.5402352056       -0.1520282426
 C          2.7082983277        3.4418043184        0.3597468330
 C          2.0962815987        2.2138694076        0.5302087508
 C          2.7983177041        1.0724242418        0.1691942511
 C          4.1370316668        1.1641031115       -0.3020177665
 C          4.7281858518        2.4082563344       -0.4730115824
 C          4.6009773739       -0.1794023243       -0.4764704784
 C          5.8075226813       -0.7329711816       -0.8816840912
 C          5.9224908931       -2.1105377527       -0.9330849472
 C          4.8555955125       -2.9379834385       -0.5804165961
 C          3.6433300916       -2.4110168624       -0.1746937987
 C          3.5220561398       -1.0301202428       -0.1168085341
 N          2.4337774945       -0.2594125066        0.2499521282
 C          1.1916591861       -0.7617082743        0.5870129348
 C          0.0015625254       -0.1494277435        0.2064939718
 C         -1.1913511104       -0.7564178285        0.5863725145
 N         -2.4321824102       -0.2530694933        0.2465961111
 C         -3.5244627374       -1.0255350710       -0.1055236810
 C         -3.6504389537       -2.4066865040       -0.1452978733
 C         -4.8664671657       -2.9352043166       -0.5374598512
 C         -5.9327431069       -2.1092349040       -0.8953521327
 C         -5.8129356443       -0.7315297670       -0.8631426097
 C         -4.6026176908       -0.1765791455       -0.4713748376
 C         -4.1341934454        1.1676631925       -0.3171614293
 C         -4.7233839031        2.4105532616       -0.5033123688
 C         -3.9936932816        3.5453831198       -0.2026557694
 C         -2.6972610362        3.4508854559        0.3042640914
 C         -2.0874234472        2.2240805392        0.4900004520
 C         -2.7934798996        1.0787861125        0.1492403769
 N         -1.1682089185       -1.9603477339        1.2608522864
 C         -0.0030208840       -2.4947961362        1.5150039092
 N          1.1646055837       -1.9668071326        1.2588087544
 H          4.4465670804        4.5161501757       -0.2785868854
 H          2.1775931120        4.3402678986        0.6359797322
 H          1.1111485381        2.1523329000        0.9642163440
 H          5.7399176240        2.4850276965       -0.8412885177
 H          6.6380032813       -0.0975060513       -1.1496505898
 H          6.8528230107       -2.5573277170       -1.2514892850
 H          4.9776408197       -4.0091259064       -0.6319824993
 H          2.8154297852       -3.0456437022        0.0995305327
 H          0.0045112469        0.7152426815       -0.4369716359
 H         -2.8229305172       -3.0405049965        0.1322017348
 H         -4.9917756449       -4.0066104949       -0.5744652968
 H         -6.8657866054       -2.5572352052       -1.2034194630
 H         -6.6430981572       -0.0968867459       -1.1343766126
 H         -5.7368776636        2.4841240790       -0.8674675789
 H         -4.4361608145        4.5204388255       -0.3407157848
 H         -2.1629650844        4.3518712402        0.5648353880
 H         -1.1001074667        2.1679185924        0.9194820142
 H         -0.0053042385       -3.4544257970        2.0160663704
  50
  -80.4807339427000       0.205446438617047      !
 C          5.9746873779        2.1701880709        0.5284900769
 C          4.9081208049        2.6738501129        1.2741035576
 C          3.6755515371        2.0470807095        1.2763089622
 C          3.5317633703        0.8893185987        0.5252737821
 C          4.6105131576        0.3721017327       -0.2400850280
 C          5.8374926647        1.0209883631       -0.2286983867
 C          4.1253547544       -0.8111201212       -0.8824287185
 C          4.7088282844       -1.7373327635       -1.7357841792
 C          3.9637440574       -2.8261571078       -2.1472245854
 C          2.6573505778       -3.0111914235       -1.6938667788
 C          2.0534106620       -2.0974755482       -0.8499559793
 C          2.7742319393       -0.9743854073       -0.4672872188
 N          2.4223956473        0.0770882339        0.3619629470
 C          1.1791103505        0.3337452374        0.9052389638
 C         -0.0143145241        0.0283102401        0.2583271323
 C         -1.2039803781        0.3676537090        0.8948786008
 N         -2.4420210125        0.1074782731        0.3382863645
 C         -2.8042661834       -1.0193532371       -0.3755213692
 C         -2.1098953008       -2.2032178652       -0.5802489168
 C         -2.7163600413       -3.1968286966       -1.3261501266
 C         -3.9957882031       -3.0239810011       -1.8553874638
 C         -4.7136775330       -1.8659587822       -1.6204674407
 C         -4.1291362625       -0.8584736284       -0.8655141856
 C         -4.5873786295        0.4126723603       -0.3895051205
 C         -5.7799816794        1.1116634633       -0.5124617782
 C         -5.8910486332        2.3482783647        0.0979163199
 C         -4.8350327335        2.8900749704        0.8315523063
 C         -3.6363357102        2.2143924590        0.9682065874
 C         -3.5192354603        0.9732067301        0.3598844053
 N         -1.1811168324        1.0583827112        2.0885701263
 C         -0.0126695309        1.3548424269        2.5927387620
 N          1.1512024702        1.0052334903        2.1113981791
 H          6.9209873080        2.6903463028        0.5443363890
 H          5.0462630181        3.5736370320        1.8540519662
 H          2.8479919115        2.4332709763        1.8501937811
 H          6.6673162595        0.6303914382       -0.7981363426
 H          5.7295290426       -1.6088164349       -2.0626959724
 H          4.4003734615       -3.5562917523       -2.8118641725
 H          2.1087540475       -3.8884186217       -2.0014342454
 H          1.0574304283       -2.2814743221       -0.4818648110
 H         -0.0224589522       -0.3756301280       -0.7408040333
 H         -1.1373412379       -2.3630261195       -0.1418490668
 H         -2.1945714274       -4.1268219249       -1.4935677915
 H         -4.4359953346       -3.8186429268       -2.4388119420
 H         -5.7149240647       -1.7478308303       -2.0061246539
 H         -6.6032758040        0.6947764465       -1.0726181367
 H         -6.8100516616        2.9079459501        0.0062816730
 H         -4.9548952149        3.8572278384        1.2954759929
 H         -2.8165492439        2.6261658354        1.5355149666
 H         -0.0085825210        1.9141771132        3.5197132625
  50
  -80.4806312863000       0.184298161253002      !
 C          3.7266705794        0.6728493321       -3.7725244933
 C          2.4081412368        0.2266834549       -3.6764828569
 C          1.8766621826       -0.1810325711       -2.4670204104
 C          2.6880708517       -0.1287347410       -1.3427055197
 C          4.0475136624        0.2745602087       -1.4431662228
 C          4.5562174664        0.6888446853       -2.6664868634
 C          4.6180459280        0.1099126747       -0.1392164942
 C          5.8858577114        0.3121241646        0.3876308257
 C          6.0994416486        0.0396820397        1.7271596881
 C          5.0711268256       -0.4361821045        2.5415589929
 C          3.7994598157       -0.6466626025        2.0410152409
 C          3.5794213077       -0.3769933921        0.6981415671
 N          2.4158893822       -0.4939023958       -0.0378307114
 C          1.1869829438       -0.8696185695        0.4713886211
 C          0.0035796090       -0.2419909243        0.0961751431
 C         -1.1834511309       -0.7036627933        0.6566498193
 N         -2.4157386019       -0.1401164485        0.3920852394
 C         -2.8249763043        0.4667649030       -0.7836170790
 C         -2.2054731892        0.5346686311       -2.0243153680
 C         -2.8484687600        1.2094782131       -3.0455687618
 C         -4.0965596939        1.8016241512       -2.8502984161
 C         -4.7470507718        1.6979067870       -1.6354566813
 C         -4.1236734404        1.0179461866       -0.5982780044
 C         -4.5217329498        0.6878688585        0.7359463467
 C         -5.6743951589        0.9158534859        1.4749195959
 C         -5.7393891509        0.4359602811        2.7703076823
 C         -4.6741576095       -0.2692766927        3.3318991870
 C         -3.5142005812       -0.5051181202        2.6172949179
 C         -3.4435973515       -0.0335067613        1.3142644270
 N         -1.1472497273       -1.7167654181        1.5941699315
 C          0.0206407922       -2.1868872363        1.9466809948
 N          1.1764000546       -1.8563247801        1.4348278072
 H          4.1067286371        0.9893364345       -4.7322315430
 H          1.7949124808        0.1900439198       -4.5640744611
 H          0.8690410613       -0.5623490832       -2.4106465728
 H          5.5843966973        1.0065731531       -2.7507058925
 H          6.6874625766        0.6739656000       -0.2384788992
 H          7.0787400871        0.1976180773        2.1540219849
 H          5.2717831956       -0.6377249343        3.5827433243
 H          3.0005436586       -1.0166553097        2.6641223807
 H          0.0232717210        0.6283516997       -0.5389837721
 H         -1.2604764264        0.0516443100       -2.2114614574
 H         -2.3778071280        1.2719782544       -4.0149677592
 H         -4.5649148499        2.3283674308       -3.6680536284
 H         -5.7261399031        2.1292681015       -1.4924622417
 H         -6.5034770105        1.4544297542        1.0412925282
 H         -6.6268762048        0.6088700829        3.3608038921
 H         -4.7550343844       -0.6312844145        4.3454689648
 H         -2.6874897226       -1.0480343765        3.0477638498
 H          0.0272219261       -2.9490663834        2.7153677613
  50
  -80.4806198011000       0.182071835238928      !
 C          5.8656789837        0.0923447318        2.5011961476
 C          4.8117597872        0.8426761285        3.0243273640
 C          3.6106914766        0.9603378317        2.3490487968
 C          3.4912523599        0.3201258849        1.1237998077
 C          4.5553911806       -0.4509150159        0.5851397861
 C          5.7501070005       -0.5544315870        1.2836573244
 C          4.0950332836       -0.9598553913       -0.6720218473
 C          4.6800578328       -1.7504975927       -1.6517419454
 C          3.9665027285       -2.0176936218       -2.8047984696
 C          2.6920227423       -1.4848409436       -2.9990274697
 C          2.0842551587       -0.7027737485       -2.0333557315
 C          2.7747152976       -0.4641895534       -0.8529360400
 N          2.4182131355        0.2907805206        0.2525613739
 C          1.1884506243        0.8632642885        0.5046718250
 C         -0.0029280761        0.2443300579        0.1403120883
 C         -1.1931474980        0.8991388499        0.4384957964
 N         -2.4226959816        0.3683159799        0.1054192196
 C         -2.7829980638       -0.9690305923        0.1179964926
 C         -2.1010130525       -2.0736859155        0.6096045062
 C         -2.7109597744       -3.3117949461        0.5173144848
 C         -3.9791463242       -3.4556827930       -0.0456539690
 C         -4.6842288773       -2.3568867577       -0.4992531524
 C         -4.0967900941       -1.1023314639       -0.4088033925
 C         -4.5490180268        0.2203536361       -0.7217301236
 C         -5.7341292095        0.7356614114       -1.2274934377
 C         -5.8425175114        2.1039172296       -1.4013180918
 C         -4.7912904664        2.9603267735       -1.0714881128
 C         -3.5996520981        2.4721810436       -0.5675343895
 C         -3.4871012897        1.1012485430       -0.3853313548
 N         -1.1641092566        2.1536744720        1.0107072807
 C         -0.0019633768        2.6230459945        1.3836479583
 N          1.1596623329        2.0489731914        1.2088817547
 H          6.7862118421        0.0158276866        3.0607076554
 H          4.9343029542        1.3330508864        3.9779598077
 H          2.7909162385        1.5351063741        2.7496024305
 H          6.5722556407       -1.1258501110        0.8798772192
 H          5.6781730183       -2.1381908712       -1.5152383908
 H          4.4048669589       -2.6313517722       -3.5774143615
 H          2.1713380384       -1.6804453955       -3.9240540964
 H          1.1117016609       -0.2729147180       -2.2167161028
 H         -0.0037866086       -0.7108909757       -0.3576155069
 H         -1.1333206994       -1.9785972506        1.0775015534
 H         -2.1974128961       -4.1825363604        0.8957645017
 H         -4.4197158191       -4.4393319595       -0.1082068221
 H         -5.6777864075       -2.4656102469       -0.9069319816
 H         -6.5541876029        0.0791067491       -1.4761994868
 H         -6.7552005525        2.5202018444       -1.8013293289
 H         -4.9083485586        4.0228329608       -1.2209747586
 H         -2.7819374680        3.1280032766       -0.3144295660
 H         -0.0016371930        3.5814280331        1.8863717683
  50
  -80.4800948376000       0.104468714170620      !
 C          5.8565272223       -2.3359565905        0.3081936701
 C          4.7909564878       -2.8652294857        1.0375088365
 C          3.5919190853       -2.1858860541        1.1485239138
 C          3.4821814696       -0.9515752667        0.5246802798
 C          4.5613358424       -0.4041041743       -0.2187773100
 C          5.7539819272       -1.1074705997       -0.3189128566
 C          4.1120521715        0.8587529295       -0.7205835519
 C          4.7090631343        1.8420163766       -1.4972854752
 C          3.9986405210        2.9946897138       -1.7741767717
 C          2.7144383563        3.1855080049       -1.2623207154
 C          2.0956891174        2.2165323124       -0.4941933944
 C          2.7808615810        1.0337930113       -0.2486924124
 N          2.4060873929       -0.0818929717        0.4789642838
 C          1.1523275965       -0.3674213578        0.9829540813
 C         -0.0239434253        0.0195205485        0.3490496388
 C         -1.2261610153       -0.4149656135        0.8933984068
 N         -2.4437855116       -0.1105533167        0.3085689982
 C         -3.4440579417       -1.0247387230        0.0473078503
 C         -3.4914172287       -2.3778762500        0.3485140876
 C         -4.6084674347       -3.0874096314       -0.0518215151
 C         -5.6515456895       -2.4651655471       -0.7382798645
 C         -5.6106338590       -1.1146155361       -1.0378178709
 C         -4.4985570423       -0.3802778690       -0.6510583926
 C         -4.1108066088        0.9926520572       -0.7963710084
 C         -4.7176442694        2.1079204119       -1.3566610918
 C         -4.0692494235        3.3271016037       -1.2797835619
 C         -2.8345566019        3.4487946458       -0.6414037905
 C         -2.2044510100        2.3506493233       -0.0857692672
 C         -2.8361978645        1.1188294306       -0.1807283350
 N         -1.2370634093       -1.2510387723        1.9899510370
 C         -0.0820716485       -1.5885201666        2.4997182850
 N          1.0928545417       -1.1736245629        2.1029416553
 H          6.7746614909       -2.8995019041        0.2332004748
 H          4.9026693779       -3.8256665455        1.5170908380
 H          2.7633302818       -2.5905256875        1.7083989754
 H          6.5841136452       -0.6993254970       -0.8754853582
 H          5.7128836616        1.7066191458       -1.8704478970
 H          4.4464129417        3.7694855011       -2.3781597966
 H          2.1961322338        4.1106251384       -1.4638790399
 H          1.1173345498        2.3989929824       -0.0789224612
 H         -0.0102470997        0.5620712679       -0.5823662396
 H         -2.6807578046       -2.8506872782        0.8803464433
 H         -4.6721428687       -4.1432920885        0.1628737064
 H         -6.5054419731       -3.0526067169       -1.0414729807
 H         -6.4252167153       -0.6400673758       -1.5638012310
 H         -5.6826965551        2.0236791436       -1.8329007391
 H         -4.5295940542        4.2056682809       -1.7063360773
 H         -2.3669483409        4.4193920177       -0.5740318239
 H         -1.2621216976        2.4551547235        0.4302444779
 H         -0.1011318505       -2.2512722307        3.3555181339
  50
  -80.4799414463000       8.881626150250850E-002 !
 C          3.9046911944        3.5328350063        0.3368442677
 C          2.6335998958        3.3289861427        0.8752686792
 C          2.0595547759        2.0715293562        0.8949047770
 C          2.7799754765        1.0151273961        0.3563539153
 C          4.0977483556        1.2038201038       -0.1399947503
 C          4.6483351121        2.4781046419       -0.1602092786
 C          4.5850361643       -0.0957611191       -0.4987991508
 C          5.7854213702       -0.5649081226       -1.0132040635
 C          5.9254488941       -1.9230183078       -1.2383139293
 C          4.8922594317       -2.8156636936       -0.9506125697
 C          3.6861292863       -2.3744625747       -0.4376394120
 C          3.5396417620       -1.0138210571       -0.2127540680
 N          2.4486460577       -0.3237714206        0.2765315798
 C          1.2061777205       -0.8614166958        0.5578542754
 C          0.0348793128       -0.2216051613        0.1655287733
 C         -1.1777814752       -0.7901353579        0.5423389866
 N         -2.4068391982       -0.2631027535        0.2029381096
 C         -3.5573186956       -1.0147311896        0.0192740171
 C         -3.7623430823       -2.3771825538        0.1848044272
 C         -5.0296986220       -2.8788850408       -0.0476122620
 C         -6.0737341541       -2.0480556575       -0.4568019115
 C         -5.8758889636       -0.6917144540       -0.6374202505
 C         -4.6129060081       -0.1645391995       -0.4051311517
 C         -4.0712792521        1.1569860600       -0.4741233046
 C         -4.6163591630        2.3841815057       -0.8257016557
 C         -3.8250579777        3.5135591182       -0.7429779607
 C         -2.5113450969        3.4289091122       -0.2816860942
 C         -1.9467740863        2.2161263130        0.0688973884
 C         -2.7115040004        1.0639186873       -0.0630638659
 N         -1.1752561761       -1.9879476176        1.2304707558
 C         -0.0261868380       -2.5673343780        1.4625595938
 N          1.1573382598       -2.0800041364        1.1985780975
 H          4.3192433447        4.5297194253        0.3313773163
 H          2.0939617779        4.1650829936        1.2935645445
 H          1.0941566500        1.9111829244        1.3504660454
 H          5.6437466771        2.6374271104       -0.5460562843
 H          6.5918039985        0.1187017539       -1.2320226420
 H          6.8509706038       -2.3028347390       -1.6449559839
 H          5.0367921738       -3.8688383869       -1.1374575476
 H          2.8831051651       -3.0572530419       -0.2083878267
 H          0.0813383143        0.6389618190       -0.4805624206
 H         -2.9522719625       -3.0172817702        0.4972280133
 H         -5.2133788850       -3.9345143562        0.0819343665
 H         -7.0490968645       -2.4754616816       -0.6363417894
 H         -6.6864988095       -0.0495973804       -0.9474182172
 H         -5.6432692349        2.4487615802       -1.1519585487
 H         -4.2286700594        4.4765218391       -1.0172567515
 H         -1.9223566155        4.3287790091       -0.1892157507
 H         -0.9433762194        2.1953871601        0.4598401900
 H         -0.0584425803       -3.5311466817        1.9545677298
