  50
        -80.80241630
 C          6.0986228193        1.2276566678        1.4036945794
 C          5.0700744048        2.1367472201        1.6547955036
 C          3.7947103326        1.9310472590        1.1612932082
 C          3.5727330358        0.7971101632        0.3929932231
 C          4.6108320268       -0.1375415810        0.1364260364
 C          5.8817440873        0.0914565965        0.6446884599
 C          4.0395148313       -1.1692170424       -0.6763762004
 C          4.5530171686       -2.3242995867       -1.2502402521
 C          3.7285718950       -3.0930298368       -2.0498887663
 C          2.4115850131       -2.7080397304       -2.3014524501
 C          1.8744122386       -1.5670145600       -1.7330868897
 C          2.6807447487       -0.8109617975       -0.8932890729
 N          2.4103580202        0.3702277789       -0.2218128351
 C          1.1866156390        0.9966361390       -0.1048498966
 C         -0.0009280320        0.2815247965        0.0116687904
 C         -1.1849270176        1.0021607592        0.1263010788
 N         -2.4118272184        0.3797104497        0.2348087204
 C         -2.6904431564       -0.7996527945        0.9055897055
 C         -1.8939081554       -1.5531016109        1.7569957490
 C         -2.4378613803       -2.6925025474        2.3221035426
 C         -3.7517979778       -3.0780731612        2.0559452494
 C         -4.5665418929       -2.3122052026        1.2436122045
 C         -4.0460714373       -1.1590313871        0.6722321871
 C         -4.6068560639       -0.1300600179       -0.1515806800
 C         -5.8699275897        0.0951781539       -0.6804901575
 C         -6.0763995101        1.2282466969       -1.4470487275
 C         -5.0455264648        2.1382176176       -1.6848661156
 C         -3.7777585167        1.9362156841       -1.1708454368
 C         -3.5660430707        0.8046397987       -0.3962267325
 N         -1.1629839215        2.3790627531        0.0502206662
 C          0.0051935180        2.9655764528        0.0136068561
 N          1.1703249412        2.3736413133       -0.0258729613
 H          7.0801206636        1.4168243254        1.8125543449
 H          5.2726370651        3.0122397946        2.2526083416
 H          2.9944526208        2.6273699937        1.3550863343
 H          6.6837919995       -0.6033916688        0.4462169899
 H          5.5809211216       -2.6067646423       -1.0805341003
 H          4.1101544153       -3.9951631249       -2.5040089609
 H          1.8004281729       -3.3082124023       -2.9582081150
 H          0.8640487587       -1.2688707586       -1.9666163955
 H         -0.0036976684       -0.7956808254        0.0121457763
 H         -0.8860616758       -1.2542124044        2.0005295391
 H         -1.8348607417       -3.2905510567        2.9883419628
 H         -4.1390665346       -3.9784015896        2.5087275458
 H         -5.5923458007       -2.5952966884        1.0626013094
 H         -6.6737883844       -0.6004926495       -0.4927018514
 H         -7.0514497879        1.4140804879       -1.8725307621
 H         -5.2401415954        3.0114448148       -2.2886603399
 H         -2.9756753104        2.6332749866       -1.3541291736
 H          0.0078026324        4.0478033687        0.0159653354
