  50
        -80.80241630
 C          6.0986228193        1.2276566678        1.4036945794
 C          5.0700744048        2.1367472201        1.6547955036
 C          3.7947103326        1.9310472590        1.1612932082
 C          3.5727330358        0.7971101632        0.3929932231
 C          4.6108320268       -0.1375415810        0.1364260364
 C          5.8817440873        0.0914565965        0.6446884599
 C          4.0395148313       -1.1692170424       -0.6763762004
 C          4.5530171686       -2.3242995867       -1.2502402521
 C          3.7285718950       -3.0930298368       -2.0498887663
 C          2.4115850131       -2.7080397304       -2.3014524501
 C          1.8744122386       -1.5670145600       -1.7330868897
 C          2.6807447487       -0.8109617975       -0.8932890729
 N          2.4103580202        0.3702277789       -0.2218128351
 C          1.1866156390        0.9966361390       -0.1048498966
 C         -0.0009280320        0.2815247965        0.0116687904
 C         -1.1849270176        1.0021607592        0.1263010788
 N         -2.4118272184        0.3797104497        0.2348087204
 C         -2.6904431564       -0.7996527945        0.9055897055
 C         -1.8939081554       -1.5531016109        1.7569957490
 C         -2.4378613803       -2.6925025474        2.3221035426
 C         -3.7517979778       -3.0780731612        2.0559452494
 C         -4.5665418929       -2.3122052026        1.2436122045
 C         -4.0460714373       -1.1590313871        0.6722321871
 C         -4.6068560639       -0.1300600179       -0.1515806800
 C         -5.8699275897        0.0951781539       -0.6804901575
 C         -6.0763995101        1.2282466969       -1.4470487275
 C         -5.0455264648        2.1382176176       -1.6848661156
 C         -3.7777585167        1.9362156841       -1.1708454368
 C         -3.5660430707        0.8046397987       -0.3962267325
 N         -1.1629839215        2.3790627531        0.0502206662
 C          0.0051935180        2.9655764528        0.0136068561
 N          1.1703249412        2.3736413133       -0.0258729613
 H          7.0801206636        1.4168243254        1.8125543449
 H          5.2726370651        3.0122397946        2.2526083416
 H          2.9944526208        2.6273699937        1.3550863343
 H          6.6837919995       -0.6033916688        0.4462169899
 H          5.5809211216       -2.6067646423       -1.0805341003
 H          4.1101544153       -3.9951631249       -2.5040089609
 H          1.8004281729       -3.3082124023       -2.9582081150
 H          0.8640487587       -1.2688707586       -1.9666163955
 H         -0.0036976684       -0.7956808254        0.0121457763
 H         -0.8860616758       -1.2542124044        2.0005295391
 H         -1.8348607417       -3.2905510567        2.9883419628
 H         -4.1390665346       -3.9784015896        2.5087275458
 H         -5.5923458007       -2.5952966884        1.0626013094
 H         -6.6737883844       -0.6004926495       -0.4927018514
 H         -7.0514497879        1.4140804879       -1.8725307621
 H         -5.2401415954        3.0114448148       -2.2886603399
 H         -2.9756753104        2.6332749866       -1.3541291736
 H          0.0078026324        4.0478033687        0.0159653354
  50
        -80.80199896
 C          3.7475219722        3.0616083066       -2.2715583243
 C          2.5282936487        3.2132828979       -1.6102356428
 C          2.0118325166        2.2043864339       -0.8185022843
 C          2.7325981482        1.0240828047       -0.7024700644
 C          4.0008932878        0.8850945400       -1.3307300073
 C          4.4956666372        1.9081636819       -2.1276919018
 C          4.5186081874       -0.3876918538       -0.9274034617
 C          5.7006747592       -1.0680711555       -1.1846791041
 C          5.8883808546       -2.3135370176       -0.6127257811
 C          4.9185657076       -2.8822546723        0.2139095023
 C          3.7324216329       -2.2252179472        0.4845701520
 C          3.5390132604       -0.9737899411       -0.0823995970
 N          2.4572798996       -0.1188649403        0.0262760077
 C          1.2931181179       -0.4061697568        0.7125355840
 C          0.0338632913       -0.0370316698        0.2499055529
 C         -1.0705424140       -0.3974622551        1.0155199757
 N         -2.3691462367       -0.1059862450        0.6451961811
 C         -3.4481384998       -0.9517547944        0.8301799285
 C         -3.4978415985       -2.1945879218        1.4449373554
 C         -4.7182426204       -2.8423360175        1.4987003321
 C         -5.8644521553       -2.2734821845        0.9420444624
 C         -5.8215351672       -1.0371911450        0.3230086609
 C         -4.6083694062       -0.3661769001        0.2575071517
 C         -4.2037970492        0.8962182692       -0.2836676413
 C         -4.8812615807        1.9132957751       -0.9418229779
 C         -4.1886934396        3.0572370496       -1.2917220083
 C         -2.8394007721        3.2054660258       -0.9691207238
 C         -2.1424368578        2.2024222453       -0.3213594554
 C         -2.8155610593        1.0306180063       -0.0049560715
 N         -0.9006884591       -1.1531979763        2.1578504421
 C          0.3148754881       -1.5117009336        2.4768664571
 N          1.4129515807       -1.1640920375        1.8594874298
 H          4.1168995607        3.8676399055       -2.8875043605
 H          1.9817550686        4.1386263300       -1.7113522025
 H          1.0881829678        2.3522612779       -0.2821805327
 H          5.4523526224        1.8041390578       -2.6166231088
 H          6.4568371652       -0.6299949434       -1.8184201011
 H          6.8003075942       -2.8586002881       -0.8071893929
 H          5.0955687256       -3.8561022545        0.6442478626
 H          2.9794873854       -2.6596623013        1.1230975588
 H         -0.0869593999        0.4321731082       -0.7128822642
 H         -2.6087432526       -2.6297970299        1.8734222325
 H         -4.7848605091       -3.8092379942        1.9737218487
 H         -6.7992188345       -2.8114673601        0.9964790682
 H         -6.7125947031       -0.5983493155       -0.1000045761
 H         -5.9323767808        1.8120038813       -1.1656266263
 H         -4.6996613715        3.8587933979       -1.8035724823
 H         -2.3316970922        4.1238776740       -1.2219091060
 H         -1.1107967413        2.3494006523       -0.0447415964
 H          0.4255130173       -2.1309455170        3.3579188804
  50
        -80.80188828
 C          5.9591393805        2.0600884942       -0.9646763853
 C          4.9048278794        2.9035077785       -0.6121847692
 C          3.6802934352        2.3950732919       -0.2196525837
 C          3.5324222539        1.0163439214       -0.1708527836
 C          4.5986008420        0.1504732887       -0.5321279751
 C          5.8176083789        0.6848470274       -0.9259903345
 C          4.1124020395       -1.1857508339       -0.3705301196
 C          4.6862856045       -2.4356774196       -0.5572597246
 C          3.9446711507       -3.5615249132       -0.2532077732
 C          2.6518741171       -3.4494001187        0.2591776119
 C          2.0574547603       -2.2150465993        0.4458392775
 C          2.7737112944       -1.0774138411        0.0992581997
 N          2.4292955680        0.2606640907        0.1885145040
 C          1.1964347096        0.7864491697        0.5207555787
 C         -0.0084391428        0.1708468619        0.1961617018
 C         -1.1864516751        0.8175725813        0.5562851855
 N         -2.4342979411        0.2908818677        0.2811354516
 C         -2.8000240912       -1.0403512544        0.3486265968
 C         -2.0965910856       -2.1316982937        0.8382625793
 C         -2.7088220086       -3.3709706613        0.8098394126
 C         -4.0025899480       -3.5264478461        0.3109443633
 C         -4.7284962903       -2.4389758857       -0.1385360971
 C         -4.1381301164       -1.1830601982       -0.1100261672
 C         -4.6000473603        0.1339693155       -0.4332111627
 C         -5.8035803515        0.6420832707       -0.9015459619
 C         -5.9148019710        2.0061782958       -1.1040014363
 C         -4.8480445066        2.8658551144       -0.8395790803
 C         -3.6383706976        2.3846734488       -0.3734790019
 C         -3.5210135739        1.0179776613       -0.1668869178
 N         -1.1432035160        2.0662664544        1.1405984254
 C          0.0333779243        2.5930645890        1.3538665955
 N          1.1894608882        2.0266677206        1.1276366941
 H          6.8992238406        2.4924329146       -1.2738992168
 H          5.0460438816        3.9727876246       -0.6538810388
 H          2.8621863748        3.0430572949        0.0526693054
 H          6.6381384869        0.0357772679       -1.1922074095
 H          5.6972127115       -2.5208637278       -0.9260245307
 H          4.3739430163       -4.5421488135       -0.3931722256
 H          2.1066293496       -4.3429949769        0.5223882305
 H          1.0728963983       -2.1519749214        0.8794175036
 H         -0.0357443519       -0.7313743368       -0.3926919074
 H         -1.1119270282       -2.0162180094        1.2633455241
 H         -2.1800645177       -4.2319601172        1.1896974247
 H         -4.4471093303       -4.5102585418        0.2977895060
 H         -5.7400732544       -2.5584306571       -0.4957795989
 H         -6.6350313344       -0.0168759871       -1.1011583511
 H         -6.8424055198        2.4167680520       -1.4743512566
 H         -4.9683394177        3.9251540948       -1.0080773772
 H         -2.8101926715        3.0435341198       -0.1649850352
 H          0.0530239211        3.5816350353        1.7948838593
  50
        -80.80179561
 C          4.4071957766       -1.2879029518        2.7369092526
 C          3.1721104844       -0.6831813149        2.9728831407
 C          2.4218997817       -0.1592480102        1.9364568065
 C          2.9258326019       -0.2561807543        0.6473257733
 C          4.2068102695       -0.8234868440        0.4063196728
 C          4.9375987048       -1.3518500519        1.4616419747
 C          4.4634002094       -0.6681254720       -0.9947246584
 C          5.5310372403       -0.9960084531       -1.8184043438
 C          5.4493120955       -0.6893779843       -3.1650591397
 C          4.3246272679       -0.0566857171       -3.6960100037
 C          3.2480114082        0.2810767937       -2.8967617014
 C          3.3246823551       -0.0221860337       -1.5452435346
 N          2.3967932584        0.1989400347       -0.5456163352
 C          1.1396750844        0.7421929483       -0.7332547491
 C          0.0111452428        0.2440136318       -0.0903062026
 C         -1.2070491664        0.8698724927       -0.3365130717
 N         -2.4010538063        0.4462166042        0.2121032959
 C         -2.5895694801       -0.1610900238        1.4424272019
 C         -1.7038732171       -0.3600004979        2.4930003899
 C         -2.1631049916       -0.9995493134        3.6295976186
 C         -3.4864786501       -1.4283929940        3.7357746245
 C         -4.3912194334       -1.1914531793        2.7184054615
 C         -3.9540378818       -0.5437109377        1.5712404330
 C         -4.6157319750       -0.1069671028        0.3800339923
 C         -5.9315780385       -0.1609146220       -0.0585175143
 C         -6.2443516622        0.3827484595       -1.2910576214
 C         -5.2644504783        0.9806648139       -2.0846268665
 C         -3.9464410977        1.0426591045       -1.6713609371
 C         -3.6253782586        0.5061843650       -0.4326502940
 N         -1.2685300038        1.9136618527       -1.2383752060
 C         -0.1695289728        2.2564431356       -1.8580078109
 N          1.0235828673        1.7666028463       -1.6492368268
 H          4.9632840520       -1.6916795188        3.5696013616
 H          2.7999963788       -0.6145381176        3.9838381459
 H          1.4872767417        0.3421154674        2.1339284564
 H          5.9067947525       -1.7939003528        1.2871504063
 H          6.4068249041       -1.4797732350       -1.4128422948
 H          6.2689824494       -0.9434508192       -3.8206261840
 H          4.2931392786        0.1673694471       -4.7513559626
 H          2.3765707505        0.7724647055       -3.2999406164
 H          0.0719205544       -0.6508899275        0.5069917891
 H         -0.6880150198       -0.0027266640        2.4512563374
 H         -1.4851561372       -1.1627303128        4.4535638530
 H         -3.8077090010       -1.9325809435        4.6347430307
 H         -5.4226940555       -1.4954546088        2.8121004738
 H         -6.6937654500       -0.6158868946        0.5559286820
 H         -7.2623209413        0.3448124434       -1.6495492529
 H         -5.5397861232        1.3962734380       -3.0419011700
 H         -3.1852235756        1.5020730643       -2.2820974630
 H         -0.2508883332        3.0471135645       -2.5928959901
  50
        -80.80116127
 C          3.7135118951        3.3334057294       -1.7144200810
 C          2.5500897594        3.3746041565       -0.9450827563
 C          2.0545646645        2.2356911912       -0.3380876296
 C          2.7427383551        1.0448833118       -0.5209036123
 C          3.9593574659        1.0061428375       -1.2535900470
 C          4.4307221980        2.1604846579       -1.8640535911
 C          4.4574216601       -0.3333531543       -1.1405241038
 C          5.5911729274       -0.9810841725       -1.6102991135
 C          5.7695437900       -2.3172833652       -1.2980476329
 C          4.8409480485       -3.0100372803       -0.5203135624
 C          3.7028286262       -2.3884350492       -0.0398505958
 C          3.5179088908       -1.0499403977       -0.3522831670
 N          2.4764072211       -0.2108803975       -0.0100943876
 C          1.3209618802       -0.5786942523        0.6544291277
 C          0.0711993704       -0.1372972520        0.2319597013
 C         -1.0388749118       -0.4955482377        0.9903461644
 N         -2.3316311290       -0.1357823147        0.6695829319
 C         -3.4541028559       -0.8865320641        0.9837690466
 C         -3.5578016144       -2.0670754917        1.7057613033
 C         -4.8165192140       -2.6070626506        1.8953841909
 C         -5.9535298128       -1.9986081604        1.3617983428
 C         -5.8588411955       -0.8296242149        0.6297206386
 C         -4.6058429744       -0.2662964843        0.4305843880
 C         -4.1531768669        0.9119360162       -0.2412861661
 C         -4.8104942668        1.9016911831       -0.9589536751
 C         -4.0782280204        2.9619408479       -1.4571016048
 C         -2.7077073480        3.0555221168       -1.2147940001
 C         -2.0320779952        2.0783830868       -0.5068281704
 C         -2.7442267998        0.9772577179       -0.0483796683
 N         -0.8685303409       -1.3183687705        2.0868109456
 C          0.3320659017       -1.7682132470        2.3439552629
 N          1.4346405376       -1.4389906411        1.7243987281
 H          4.0678394056        4.2407570696       -2.1800674566
 H          2.0343986168        4.3135942101       -0.8124215410
 H          1.1782071992        2.2805586092        0.2905816768
 H          5.3471819896        2.1422447479       -2.4340312227
 H          6.3174882119       -0.4501049191       -2.2069431587
 H          6.6431742850       -2.8372897163       -1.6621518350
 H          5.0129235026       -4.0514912194       -0.2949786346
 H          2.9813432757       -2.9145264803        0.5653713023
 H         -0.0261886012        0.3927273096       -0.7006481179
 H         -2.6765947404       -2.5370383625        2.1133886680
 H         -4.9211833333       -3.5209822943        2.4598931160
 H         -6.9201024640       -2.4523012597        1.5234856200
 H         -6.7403271550       -0.3568367689        0.2235729661
 H         -5.8765954062        1.8408058484       -1.1166869270
 H         -4.5699787465        3.7389842575       -2.0226221901
 H         -2.1612616783        3.9113464621       -1.5811078641
 H         -0.9819072588        2.2055467415       -0.3042337601
 H          0.4260643219       -2.4546071790        3.1758652717
  50
        -80.80110877
 C          6.1470487542        0.2449693427        1.4157574903
 C          5.1744470946        0.9313522907        2.1440403064
 C          3.8842708650        1.0662324858        1.6657358347
 C          3.5861690750        0.5108997436        0.4298202987
 C          4.5694068045       -0.1884325450       -0.3193164461
 C          5.8569644170       -0.3138627222        0.1842893570
 C          3.9311067848       -0.6242435397       -1.5239388964
 C          4.3705493754       -1.3380379256       -2.6302312438
 C          3.4907402629       -1.5584424026       -3.6730076790
 C          2.1910862021       -1.0515664972       -3.6335161463
 C          1.7279762869       -0.3457870717       -2.5384413983
 C          2.5875888815       -0.1586877013       -1.4638883265
 N          2.3883625148        0.5013216400       -0.2641418132
 C          1.1926690755        0.9741570288        0.2400304757
 C         -0.0276360007        0.3492962912        0.0042827774
 C         -1.1494230815        0.8547200923        0.6496985090
 N         -2.3979180657        0.2737811718        0.5045367276
 C         -3.2436136441       -0.0495000458        1.5460863048
 C         -3.0813989543        0.1752896372        2.9051688112
 C         -4.0738132312       -0.2767837716        3.7550222768
 C         -5.1988806049       -0.9394714485        3.2636024370
 C         -5.3670680699       -1.1628139667        1.9081640490
 C         -4.3833761454       -0.7229700901        1.0338431059
 C         -4.2128140888       -0.7870978909       -0.3885488749
 C         -4.9837157233       -1.2913337537       -1.4265552773
 C         -4.5324299040       -1.1391964553       -2.7249867006
 C         -3.3332940311       -0.4808589808       -2.9997033193
 C         -2.5420484533        0.0199506152       -1.9824491161
 C         -2.9748783987       -0.1507514192       -0.6751539640
 N         -1.0335483825        1.9027936383        1.5383377812
 C          0.1584050226        2.4062287297        1.7215384773
 N          1.2558648549        2.0467325595        1.1080516980
 H          7.1416657645        0.1492705071        1.8253384598
 H          5.4324266469        1.3579373303        3.1013227968
 H          3.1269211268        1.5931208483        2.2248089519
 H          6.6152857839       -0.8372408224       -0.3782922926
 H          5.3842408165       -1.7065846027       -2.6731411857
 H          3.8146035293       -2.1131291864       -4.5407860515
 H          1.5361490394       -1.2072258564       -4.4772792542
 H          0.7320295011        0.0677149701       -2.5434976063
 H         -0.0956872521       -0.5502279767       -0.5858947634
 H         -2.2086869832        0.6892514180        3.2763584233
 H         -3.9735745843       -0.1219926569        4.8185204135
 H         -5.9505232202       -1.2847288585        3.9578522166
 H         -6.2439413790       -1.6708846082        1.5362002007
 H         -5.9227248639       -1.7826035249       -1.2212687633
 H         -5.1222727195       -1.5214118287       -3.5445844648
 H         -3.0220344855       -0.3541414681       -4.0255278137
 H         -1.6287384771        0.5517974427       -2.2019484013
 H          0.2400033664        3.2235012282        2.4268074647
