  57
        -93.12510225
 C         -6.7195990729       -3.7208300919       -0.0081040556
 O         -5.3494202898       -4.0307161008       -0.0300963951
 C         -4.4518524714       -2.9995865840       -0.0254281523
 C         -3.1035776611       -3.3895598539       -0.0553761592
 C         -2.0797684975       -2.4687984381       -0.0449984041
 C         -2.4131717716       -1.1214999660        0.0081680796
 C         -3.7641924181       -0.7174523153        0.0040430637
 C         -4.7902720643       -1.6570934594       -0.0069753616
 C         -3.7633638131        0.7178821083       -0.0045266046
 C         -4.7883393310        1.6587263377        0.0104577310
 C         -4.4483842781        3.0008149005        0.0269613250
 O         -5.3449496458        4.0328938573        0.0351192835
 C         -6.7153589102        3.7243705458        0.0201226799
 C         -3.0995913850        3.3894105489        0.0508601080
 C         -2.0769239677        2.4674849022        0.0367815647
 C         -2.4119937426        1.1205337692       -0.0142124190
 N         -1.5991579121       -0.0010387394       -0.0047440733
 C         -0.2071250308       -0.0011916914       -0.0043689847
 C          0.4984564681       -0.8258615891        0.8720108381
 C          1.8763103136       -0.8315732666        0.8646542987
 C          2.5845605248       -0.0001714852       -0.0022661050
 C          4.0487421680        0.0001777094       -0.0005986923
 C          4.7807538687        1.1965000593        0.0217545037
 C          4.1378127066        2.4503243144        0.0968024582
 N          3.6626536033        3.4912115163        0.1791090269
 C          6.1865116442        1.1475642906        0.0240696852
 C          7.0013045228        2.3962012729        0.0547595601
 N          6.8414612485       -0.0000369298        0.0042555632
 C          6.1863914358       -1.1476102380       -0.0183335637
 C          7.0011669662       -2.3961602764       -0.0482064762
 C          4.7806474580       -1.1962908470       -0.0208042582
 C          4.1386651862       -2.4505907482       -0.0962941055
 N          3.6668912242       -3.4930640168       -0.1784438513
 C          1.8770616860        0.8305025789       -0.8704750031
 C          0.4992054411        0.8236495966       -0.8800114123
 H         -7.0176780045       -3.1486579223       -0.8932652880
 H         -7.2392951694       -4.6777322333       -0.0080402586
 H         -6.9919614569       -3.1621424098        0.8938392203
 H         -2.8907139167       -4.4458481809       -0.0922475220
 H         -1.0527607682       -2.7957898612       -0.0927149153
 H         -5.8154596153       -1.3240562816       -0.0085393615
 H         -5.8138624163        1.3267560479        0.0161035645
 H         -6.9934417642        3.1682794170       -0.8817254755
 H         -7.2341934091        4.6817548129        0.0254951499
 H         -7.0091671666        3.1501699469        0.9054113363
 H         -2.8853965346        4.4454722667        0.0860998816
 H         -1.0493253079        2.7931943036        0.0803404040
 H         -0.0407136101       -1.4440436755        1.5727262715
 H          2.4094717347       -1.4588770130        1.5637290117
 H          8.0565932569        2.1397039022        0.0519627995
 H          6.7691136428        2.9775815216        0.9463881206
 H          6.7746596255        3.0188700555       -0.8099239083
 H          6.7954723511       -2.9586921368       -0.9584141578
 H          6.7487904547       -3.0364358152        0.7960079674
 H          8.0561081002       -2.1407098410       -0.0107568002
 H          2.4108536205        1.4580938147       -1.5688137371
 H         -0.0392150716        1.4407561206       -1.5822408445
  57
        -93.12492901
 C         -6.5804145107       -3.8186954062       -0.1777544487
 O         -5.2009986091       -4.0791983689       -0.1281890551
 C         -4.3422220671       -3.0171709272       -0.0712969853
 C         -2.9811085062       -3.3600268048       -0.0451329515
 C         -1.9918231404       -2.4045999420        0.0173645605
 C         -2.3746116211       -1.0703598668        0.0664203998
 C         -3.7372026400       -0.7127339737        0.0093965597
 C         -4.7282646677       -1.6875421410       -0.0540464745
 C         -3.7848166870        0.7219643696        0.0079051163
 C         -4.8406247201        1.6276438710       -0.0159010113
 C         -4.5471350445        2.9804779108        0.0155958685
 O         -5.4780423798        3.9813439349       -0.0110948996
 C         -6.8350150389        3.6262627064       -0.0894616918
 C         -3.2141609477        3.4144803165        0.0921390817
 C         -2.1609748279        2.5276195409        0.1170154500
 C         -2.4483277037        1.1703460110        0.0524338325
 N         -1.5993921278        0.0776400913        0.0931339713
 C         -0.2078045867        0.1082423779        0.1099947390
 C          0.4997910165       -0.7073097783        0.9935125778
 C          1.8768609759       -0.7265733467        0.9711194986
 C          2.5832387543        0.0819368745        0.0808747185
 C          4.0448932487        0.0203781366        0.0264178367
 C          4.8376812002        1.1768321489       -0.0023644688
 C          4.2657142440        2.4640055095        0.0802159290
 N          3.8503537856        3.5300550784        0.1643656095
 C          6.2377898713        1.0538941907       -0.0659858894
 C          7.1173632884        2.2577597284       -0.0976988554
 N          6.8312793280       -0.1263296771       -0.0994529259
 C          6.1175549003       -1.2383393257       -0.0759347690
 C          6.8632547273       -2.5288326210       -0.1277147970
 C          4.7128977023       -1.2129756953       -0.0129913226
 C          4.0047544786       -2.4330994458       -0.0496468452
 N          3.4766873384       -3.4501629880       -0.1047567839
 C          1.8744307809        0.9262383596       -0.7729240827
 C          0.4961587166        0.9346841613       -0.7656199622
 H         -6.8503620496       -3.2457549453       -1.0714804706
 H         -7.0641827493       -4.7934923418       -0.2172065862
 H         -6.9218640624       -3.2821998768        0.7140710554
 H         -2.7298401587       -4.4078045292       -0.0822370073
 H         -0.9529403266       -2.6953731500        0.0106105920
 H         -5.7635672457       -1.3905648676       -0.0976231820
 H         -5.8537912683        1.2613827869       -0.0516543598
 H         -7.0515294811        3.0607620637       -1.0022573475
 H         -7.3860026456        4.5652998018       -0.1100867719
 H         -7.1502594721        3.0425426737        0.7821765008
 H         -3.0378745933        4.4772353852        0.1363418595
 H         -1.1468957436        2.8867997969        0.1990280830
 H         -0.0382400536       -1.3148893716        1.7043107433
 H          2.4116933057       -1.3522584775        1.6703561023
 H          8.1572755347        1.9451234177       -0.1089803535
 H          6.9323825634        2.8871999215        0.7717143169
 H          6.9086476394        2.8549940142       -0.9846987578
 H          7.9304451189       -2.3296807948       -0.1528491317
 H          6.5773961554       -3.0938613345       -1.0143093297
 H          6.6252058010       -3.1413869295        0.7409343586
 H          2.4062411470        1.5475923056       -1.4782588962
 H         -0.0439766697        1.5585674524       -1.4605977732
  57
        -93.12474135
 C         -6.7056298229       -3.8792152893        0.0402628858
 O         -5.3310072115       -4.1694614933        0.0061991475
 C         -4.4496076587       -3.1253441967       -0.0008898579
 C         -3.0955691109       -3.4937545554       -0.0318936125
 C         -2.0859694662       -2.5568957727       -0.0310713651
 C         -2.4401932847       -1.2147132890        0.0138302220
 C         -3.7971363596       -0.8335320196        0.0083120510
 C         -4.8086484802       -1.7875413864        0.0065483485
 C         -3.8218773595        0.6026643122       -0.0121428274
 C         -4.8490987598        1.5303465249       -0.0048249341
 C         -4.5341326711        2.8850287016       -0.0000409180
 O         -5.6034783706        3.7375231441       -0.0052238468
 C         -5.3635937477        5.1221063034       -0.0017945660
 C         -3.1984202439        3.2953289414        0.0226525069
 C         -2.1631450662        2.3766142075        0.0171794422
 C         -2.4735523503        1.0283210806       -0.0249948078
 N         -1.6427499684       -0.0808550859       -0.0074309635
 C         -0.2517309674       -0.0595684721       -0.0083026885
 C          0.4684603026       -0.8770670886        0.8634914374
 C          1.8461130243       -0.8607119952        0.8551155694
 C          2.5401377669       -0.0106963364       -0.0050646487
 C          4.0037886829        0.0188613031       -0.0008169080
 C          4.7099053598        1.2299433143        0.0459863492
 C          4.0381587933        2.4667515312        0.1448327980
 N          3.5365298176        3.4935737119        0.2466620065
 C          6.1162603174        1.2108796651        0.0501750907
 C          6.9042270627        2.4757538919        0.1080166778
 N          6.7954845594        0.0781319402        0.0067118040
 C          6.1650004183       -1.0824646648       -0.0398552029
 C          7.0060976142       -2.3127177584       -0.0933985568
 C          4.7607199031       -1.1611167029       -0.0429674026
 C          4.1429182524       -2.4257555467       -0.1430307882
 N          3.6872233486       -3.4734000102       -0.2452668360
 C          1.8187958862        0.8127691831       -0.8685847350
 C          0.4414895388        0.7807766840       -0.8801224052
 H         -7.0218799605       -3.3217420155       -0.8478304244
 H         -7.2109891851       -4.8436466652        0.0573857415
 H         -6.9755795654       -3.3137416181        0.9384862588
 H         -2.8655830152       -4.5467298405       -0.0612951025
 H         -1.0544245530       -2.8690254620       -0.0799183479
 H         -5.8376106457       -1.4673447394        0.0030718197
 H         -5.8843326947        1.2307801480        0.0028193168
 H         -4.8294488693        5.4382415527        0.9004279549
 H         -6.3466294574        5.5904242794       -0.0179828170
 H         -4.8004242292        5.4370038426       -0.8866338798
 H         -2.9499516921        4.3440618472        0.0514607287
 H         -1.1412705054        2.7206131630        0.0609568913
 H         -0.0598136319       -1.5069607932        1.5619443742
 H          2.3902347453       -1.4843016050        1.5491106434
 H          7.9645850327        2.2410559756        0.1195834743
 H          6.6448588351        3.0429004384        1.0013176618
 H          6.6792637447        3.1023470166       -0.7544725575
 H          6.7791651796       -2.8876648731       -0.9905255506
 H          6.7997675873       -2.9508927022        0.7652141876
 H          8.0556526840       -2.0334832599       -0.0947763790
 H          2.3424133269        1.4540038079       -1.5623427803
 H         -0.1067882440        1.3903145420       -1.5812859341
  57
        -93.12461171
 C         -5.5125957793       -5.0723601147        0.4495938694
 O         -5.7100759394       -3.6892358728        0.3001231821
 C         -4.6164985917       -2.8692163559        0.2534041290
 C         -3.2939053784       -3.3105952353        0.3489328883
 C         -2.2329674750       -2.4234729318        0.2869810857
 C         -2.5041979698       -1.0771533035        0.1150053218
 C         -3.8399558139       -0.6172701946        0.0478165841
 C         -4.8927138028       -1.5133657745        0.1124169384
 C         -3.7751450298        0.8131876869       -0.0684649307
 C         -4.7572273481        1.7888768664       -0.2003877129
 C         -4.3581292773        3.1090613427       -0.3294150888
 O         -5.2070724500        4.1715641941       -0.4619332137
 C         -6.5897791426        3.9213575695       -0.4729982674
 C         -2.9935430451        3.4373579694       -0.3460379958
 C         -2.0129721969        2.4791252141       -0.2165497028
 C         -2.4087829769        1.1577963315       -0.0544849195
 N         -1.6437630886        0.0067586638        0.0574229323
 C         -0.2532014283       -0.0360766603        0.0793359777
 C          0.4444643690       -0.9428518097       -0.7187829258
 C          1.8226822157       -0.9540678918       -0.7174901802
 C          2.5390647129       -0.0504132666        0.0665359664
 C          4.0018215958       -0.0202081434        0.0246558144
 C          4.7713845216       -1.1900536366        0.1050626112
 C          4.1724518842       -2.4539836073        0.2899021227
 N          3.7337061582       -3.5004104363        0.4594830186
 C          6.1742576934       -1.1000877192        0.0501144843
 C          7.0296178445       -2.3187453865        0.1358114842
 N          6.7921468660        0.0613354659       -0.0745118353
 C          6.1009693182        1.1849973576       -0.1536747561
 C          6.8736109189        2.4521955967       -0.2987216564
 C          4.6954432618        1.1921468038       -0.1093169024
 C          4.0130501716        2.4182010609       -0.2594473940
 N          3.5074635626        3.4373934167       -0.4074361053
 C          1.8390051544        0.8432342364        0.8769867620
 C          0.4618572940        0.8446436816        0.8919470561
 H         -5.0090181570       -5.3096407591        1.3927653533
 H         -6.5090461467       -5.5119674032        0.4555955105
 H         -4.9393814724       -5.4916032906       -0.3841535213
 H         -3.0766778735       -4.3585556120        0.4797113717
 H         -1.2218902291       -2.7875110027        0.3866347280
 H         -5.9189294244       -1.1879380915        0.0623609589
 H         -5.7947873539        1.4977531280       -0.2078311770
 H         -6.8762510661        3.2803679836       -1.3135880854
 H         -7.0651855724        4.8945821824       -0.5854298514
 H         -6.9236845210        3.4621006659        0.4635193901
 H         -2.7314296647        4.4756344349       -0.4714260546
 H         -0.9714335419        2.7572430963       -0.2590657654
 H         -0.1004689146       -1.6156101788       -1.3625355038
 H          2.3495239693       -1.6405470230       -1.3637391517
 H          6.7744589038       -3.0196840587       -0.6579521447
 H          6.8686083149       -2.8269442087        1.0860422765
 H          8.0740319017       -2.0337664902        0.0493966296
 H          6.6687615352        3.1186863079        0.5385465567
 H          6.5804831380        2.9722360077       -1.2100346175
 H          7.9354826028        2.2269089156       -0.3321524831
 H          2.3787302208        1.5199589833        1.5229442337
 H         -0.0711809894        1.5186410682        1.5441351391
  57
        -93.12439447
 C         -6.7173104271       -3.4742804724        1.3412795056
 O         -5.3469277835       -3.7687148506        1.4339405749
 C         -4.4507239941       -2.8056447123        1.0617823583
 C         -3.1020227437       -3.1784949435        1.1750607666
 C         -2.0795960554       -2.3162634585        0.8480509704
 C         -2.4137657511       -1.0425292658        0.4066888358
 C         -3.7654093442       -0.6686906139        0.2580157954
 C         -4.7904323473       -1.5488721608        0.5906655443
 C         -3.7658927502        0.6657838996       -0.2699834431
 C         -4.7915492477        1.5492496666       -0.5917026629
 C         -4.4529583883        2.8072052544       -1.0605132996
 O         -5.3495665599        3.7748347711       -1.4182128224
 C         -6.7203339239        3.4876552177       -1.3025933413
 C         -3.1042571408        3.1764093091       -1.1858316847
 C         -2.0811794495        2.3106153028       -0.8705399948
 C         -2.4146417681        1.0371232503       -0.4280301112
 N         -1.6008124718       -0.0037464010       -0.0138965288
 C         -0.2074866036       -0.0013779495       -0.0095102677
 C          0.4948970071       -0.4346849607        1.1146647510
 C          1.8732665668       -0.4291026487        1.1187586005
 C          2.5838912173        0.0032304668        0.0000041774
 C          4.0492765885        0.0022312219        0.0025795050
 C          4.7820938413        0.5320450809        1.0747525480
 C          4.1428150058        1.1364607805        2.1783022767
 N          3.6709833136        1.6520560457        3.0876952057
 C          6.1880392965        0.5078283350        1.0316824966
 C          7.0039176071        1.0613000653        2.1505954811
 N          6.8427430709       -0.0023499504        0.0034385703
 C          6.1871291640       -0.5107378732       -1.0252323220
 C          7.0012572584       -1.0675354033       -2.1436505228
 C          4.7812015027       -0.5305728928       -1.0687630076
 C          4.1410141695       -1.1357312208       -2.1711614340
 N          3.6730520570       -1.6562259164       -3.0798231938
 C          1.8792867055        0.4340635689       -1.1231838057
 C          0.5009247911        0.4350601062       -1.1286647515
 H         -7.0154872521       -3.2640588221        0.3084497912
 H         -7.2356523789       -4.3664405880        1.6894046073
 H         -6.9915343296       -2.6261211296        1.9778397070
 H         -2.8886621856       -4.1755777683        1.5256374838
 H         -1.0518806649       -2.6363318995        0.9216169341
 H         -5.8160121888       -1.2399937034        0.4694020794
 H         -5.8167485350        1.2421625580       -0.4630910599
 H         -7.0110793810        2.6472761909       -1.9419753547
 H         -7.2395032929        4.3861321018       -1.6322921702
 H         -6.9997365658        3.2693847334       -0.2663859732
 H         -2.8913517925        4.1738906358       -1.5355252858
 H         -1.0534272794        2.6282825892       -0.9529150360
 H         -0.0462522839       -0.7547665159        1.9914316507
 H          2.4039291093       -0.7777378233        1.9924548158
 H          6.7982627497        0.5190058195        3.0729642522
 H          6.7528200227        2.1071292311        2.3231535557
 H          8.0585095649        0.9735876743        1.9067136665
 H          8.0555956833       -0.9985770173       -1.8927518154
 H          6.8104856435       -0.5130823743       -3.0621490253
 H          6.7339593876       -2.1073219447       -2.3278636318
 H          2.4148482604        0.7850068968       -1.9930155174
 H         -0.0352251125        0.7529013471       -2.0093173393
  57
        -93.12429045
 C         -6.7959542920       -3.3743816073        1.4120483734
 O         -5.4351663655       -3.7207782960        1.4570708046
 C         -4.5161749705       -2.7881097713        1.0637966610
 C         -3.1785029111       -3.2073019276        1.1415352039
 C         -2.1358205136       -2.3789026269        0.7916219283
 C         -2.4378782065       -1.0931326890        0.3622656398
 C         -3.7792965852       -0.6728842698        0.2480691727
 C         -4.8248078348       -1.5189827678        0.6043994990
 C         -3.7471219579        0.6637546019       -0.2735924600
 C         -4.7487118797        1.5852961851       -0.5633151959
 C         -4.3776968576        2.8341826079       -1.0318732066
 O         -5.2481526490        3.8361516186       -1.3593371151
 C         -6.6242010011        3.5999209455       -1.2036684454
 C         -3.0205640497        3.1569269762       -1.1892730746
 C         -2.0211524469        2.2536016066       -0.9053705549
 C         -2.3881801032        0.9895876550       -0.4625289284
 N         -1.6007120550       -0.0813313560       -0.0745897064
 C         -0.2073717444       -0.1037680477       -0.0707514357
 C          0.4884782812       -0.5393943014        1.0564361369
 C          1.8665589108       -0.5211425693        1.0720371049
 C          2.5826532076       -0.0774853567       -0.0387625215
 C          4.0468618944       -0.0243388593       -0.0063473738
 C          4.7273499603        0.5579184053        1.0731378064
 C          4.0320669201        1.1507716695        2.1486538683
 N          3.5146287230        1.6642041034        3.0345558094
 C          6.1331448474        0.6032889993        1.0624686104
 C          6.8925392955        1.2231948515        2.1862248700
 N          6.8359163929        0.1072975922        0.0592762320
 C          6.2303325729       -0.4503854034       -0.9743808120
 C          7.0975787592       -0.9892309331       -2.0612577569
 C          4.8282205562       -0.5379819444       -1.0512626368
 C          4.2418694999       -1.1849234083       -2.1598029368
 N          3.8153092497       -1.7343063257       -3.0719391236
 C          1.8851307843        0.3338165117       -1.1733234658
 C          0.5066858570        0.3245125426       -1.1893767166
 H         -7.0154428864       -2.5187986343        2.0598263996
 H         -7.1212655166       -3.1490671979        0.3906812461
 H         -7.3357602440       -4.2474382042        1.7756373824
 H         -2.9906400326       -4.2122313557        1.4842386287
 H         -1.1174871687       -2.7322553226        0.8400803387
 H         -5.8420731258       -1.1752471874        0.5098561031
 H         -5.7806072724        1.3138976785       -0.4101970533
 H         -6.9657854266        2.7738756768       -1.8366772459
 H         -7.1190281363        4.5186831249       -1.5148531388
 H         -6.8807680571        3.3877081017       -0.1601447982
 H         -2.7814707947        4.1490287255       -1.5373208989
 H         -0.9852261752        2.5357833764       -1.0109030996
 H         -0.0574878578       -0.8639601056        1.9285397778
 H          2.3933520067       -0.8631751520        1.9507332605
 H          7.9572692463        1.1596764659        1.9821149952
 H          6.6691906685        0.7130565747        3.1225254669
 H          6.6050613224        2.2671819578        2.3062091852
 H          8.1398223636       -0.8094340448       -1.8145558108
 H          6.8587562000       -0.5112929111       -3.0105757372
 H          6.9308984011       -2.0590359452       -2.1825255881
 H          2.4256140628        0.6822179048       -2.0411448606
 H         -0.0254659761        0.6341016733       -2.0753906113
  57
        -93.12387465
 C         -6.6885868922       -3.6595850742        1.3376323223
 O         -5.3122234852       -3.9334082746        1.4120333630
 C         -4.4364453956       -2.9478763924        1.0522984739
 C         -3.0805015352       -3.2975746351        1.1490493148
 C         -2.0761851199       -2.4104697363        0.8311235890
 C         -2.4374163927       -1.1357643128        0.4152313150
 C         -3.7962630438       -0.7849468051        0.2835468570
 C         -4.8025787990       -1.6884044276        0.6070648008
 C         -3.8268165847        0.5593372089       -0.2215217975
 C         -4.8568651981        1.4338979467       -0.5216619208
 C         -4.5464074894        2.7118744832       -0.9739771514
 O         -5.6189513096        3.5125714096       -1.2554421401
 C         -5.3845050980        4.8234278652       -1.7037579268
 C         -3.2119969864        3.1068605599       -1.1023396459
 C         -2.1739816348        2.2408697055       -0.8051054649
 C         -2.4798924628        0.9585614512       -0.3838140456
 N         -1.6451535354       -0.0753168634        0.0064309147
 C         -0.2523575008       -0.0502169069        0.0021921811
 C          0.4633940225       -0.4837186785        1.1179311472
 C          1.8413555695       -0.4542871090        1.1147324640
 C          2.5381188266       -0.0012249845       -0.0044646559
 C          4.0033878037        0.0232128907       -0.0056214056
 C          4.7255789500        0.5758623036        1.0620414817
 C          4.0720168787        1.1825844551        2.1556826571
 N          3.5888091305        1.7039866664        3.0559164110
 C          6.1316509620        0.5754927906        1.0206731729
 C          6.9357546190        1.1606895479        2.1318783781
 N          6.7959394841        0.0635645850       -0.0005416994
 C          6.1502048683       -0.4662853438       -1.0246171776
 C          6.9754954639       -1.0318225075       -2.1304553096
 C          4.7448391507       -0.5064432472       -1.0716817207
 C          4.1133483863       -1.1249849833       -2.1716771757
 N          3.6483057614       -1.6518084406       -3.0783495388
 C          1.8208631524        0.4269886969       -1.1203784463
 C          0.4425439846        0.4080966604       -1.1168159801
 H         -6.9995463597       -3.4332902829        0.3121897270
 H         -7.1889558834       -4.5670164787        1.6723670743
 H         -6.9699001093       -2.8288796538        1.9935690946
 H         -2.8457150842       -4.2968116748        1.4793417263
 H         -1.0421385255       -2.7124102718        0.8920567968
 H         -5.8333754220       -1.3937682753        0.4979921820
 H         -5.8911615955        1.1534218236       -0.4074193355
 H         -4.8437252787        5.4155194826       -0.9577595980
 H         -6.3695266160        5.2603911707       -1.8614907897
 H         -4.8304336334        4.8349656588       -2.6484344722
 H         -2.9674971842        4.1039694707       -1.4319474500
 H         -1.1521383946        2.5776798843       -0.8898432214
 H         -0.0677808393       -0.8220565749        1.9939225528
 H          2.3832414449       -0.8006447391        1.9825353217
 H          6.7128448726        0.6536370926        3.0699386063
 H          6.6895853496        2.2138513442        2.2629230647
 H          7.9930661809        1.0592577120        1.9056107520
 H          6.8118603672       -2.1064004457       -2.2088187848
 H          8.0260234039       -0.8411755720       -1.9315498501
 H          6.6940813977       -0.5876710178       -3.0842234083
 H          2.3464900983        0.7913840881       -1.9908207954
 H         -0.1043995111        0.7266437306       -1.9905711907
  57
        -93.12356310
 C         -5.6083678055       -4.7344964859        1.7332804012
 O         -5.7763749585       -3.4024670381        1.3191856194
 C         -4.6680341955       -2.6656644123        1.0036297321
 C         -3.3548891917       -3.1353169992        1.0960082831
 C         -2.2783774261       -2.3311875893        0.7630558836
 C         -2.5235487241       -1.0359212823        0.3414249235
 C         -3.8500187325       -0.5599542666        0.2202229194
 C         -4.9185846237       -1.3729885741        0.5560213478
 C         -3.7588190535        0.7795214841       -0.2903783993
 C         -4.7204268964        1.7424403482       -0.5771831477
 C         -4.2959587332        2.9786211368       -1.0356895124
 O         -5.1224710638        4.0174013941       -1.3600786486
 C         -6.5075058481        3.8402137360       -1.2017752589
 C         -2.9261661994        3.2457349896       -1.1852342710
 C         -1.9660289474        2.3000980161       -0.9025265211
 C         -2.3873512693        1.0497332007       -0.4697580734
 N         -1.6444237025       -0.0552041022       -0.0847431837
 C         -0.2529447996       -0.1229501387       -0.0810580000
 C          0.4346051810       -0.5772909892        1.0438310985
 C          1.8129981098       -0.5752350528        1.0628081013
 C          2.5375987073       -0.1317955017       -0.0426437279
 C          4.0007573970       -0.0640674414       -0.0013848469
 C          4.6663551306        0.5255961440        1.0836842251
 C          3.9579633435        1.0909589614        2.1654036668
 N          3.4286992943        1.5895053952        3.0527631611
 C          6.0703933158        0.6093422451        1.0726706973
 C          6.8130150743        1.2469683506        2.1977421925
 N          6.7860147667        0.1382110356        0.0665882495
 C          6.1952839562       -0.4299380294       -0.9699587015
 C          7.0764532054       -0.9349535383       -2.0619289588
 C          4.7958202115       -0.5520333105       -1.0485156435
 C          4.2279818862       -1.1993867138       -2.1664389679
 N          3.8120621081       -1.7831634609       -3.0628266773
 C          1.8478467432        0.2832850104       -1.1809001928
 C          0.4698367966        0.2907691682       -1.1999996401
 H         -5.0331286177       -4.8006363935        2.6629114294
 H         -6.6133189839       -5.1165897786        1.9070727160
 H         -5.1218789243       -5.3394746835        0.9607719874
 H         -3.1584072439       -4.1428750949        1.4261061141
 H         -1.2746339721       -2.7236807790        0.8220103347
 H         -5.9381226447       -1.0336284103        0.4728628482
 H         -5.7623610634        1.5102772753       -0.4295961460
 H         -6.8863808322        3.0338499793       -1.8386636011
 H         -6.9622168134        4.7818217631       -1.5058323228
 H         -6.7696838077        3.6325353674       -0.1589100833
 H         -2.6440696749        4.2290709024       -1.5260031915
 H         -0.9188814208        2.5405330166       -1.0007644607
 H         -0.1172635775       -0.8983406723        1.9135647611
 H          2.3334193790       -0.9266997380        1.9416075429
 H          6.4798658421        2.2748921626        2.3363183076
 H          7.8773474357        1.2338982345        1.9823923022
 H          6.6231273572        0.7135902002        3.1284754316
 H          6.8683561223       -0.4042717884       -2.9905864887
 H          6.8923860563       -1.9933517974       -2.2415843588
 H          8.1160267296       -0.7848642799       -1.7858381062
 H          2.3943918354        0.6252870822       -2.0474419202
 H         -0.0568465270        0.6071001506       -2.0868861152
  57
        -93.12296151
 C         -5.3679410506       -4.9624629399        1.7353410048
 O         -5.6198833608       -3.6576431634        1.2798402343
 C         -4.5588204892       -2.8385348371        1.0097801767
 C         -3.2200249114       -3.2016178076        1.1778540707
 C         -2.1930356903       -2.3239109095        0.8751442084
 C         -2.5152597589       -1.0702920929        0.3856344781
 C         -3.8672136078       -0.6824802690        0.2433980501
 C         -4.8859761277       -1.5664350889        0.5509814649
 C         -3.8564989999        0.6772464461       -0.2234739826
 C         -4.8603929579        1.5646210489       -0.5682408200
 C         -4.5120353517        2.8283493261       -1.0344522135
 O         -5.5592880020        3.6489663094       -1.3499243897
 C         -5.2848265879        4.9361975149       -1.8414872889
 C         -3.1667052514        3.1815226831       -1.1672863998
 C         -2.1546035355        2.3016479875       -0.8239122193
 C         -2.4987447719        1.0549924825       -0.3317178123
 N         -1.6929860165       -0.0098477315        0.0397557496
 C         -0.3005400236       -0.0148220367        0.0429801492
 C          0.4064861424        1.0422669653        0.6161615085
 C          1.7846940533        1.0415929256        0.6116076698
 C          2.4909902467       -0.0089900418        0.0276640363
 C          3.9560604273        0.0019824518        0.0079659770
 C          4.7034351314        0.2821394891        1.1612102852
 C          4.0782999097        0.5119639786        2.4052561454
 N          3.6175365389        0.6860321881        3.4413110523
 C          6.1084104800        0.2856952392        1.0917938389
 C          6.9389501260        0.5716373866        2.2969272649
 N          6.7487584189        0.0348085611       -0.0365857042
 C          6.0789167591       -0.2318303711       -1.1441302943
 C          6.8769560079       -0.4947920054       -2.3761755633
 C          4.6728748588       -0.2618321639       -1.1684973534
 C          4.0143939087       -0.5054930811       -2.3925402079
 N          3.5268863920       -0.6878828371       -3.4146743438
 C          1.7825783603       -1.0655112108       -0.5427512431
 C          0.4043620572       -1.0723846638       -0.5316774705
 H         -4.8396783619       -4.9619997192        2.6946950430
 H         -6.3466192914       -5.4220444334        1.8667873812
 H         -4.7938387112       -5.5418589794        1.0044198500
 H         -2.9627608239       -4.1783361388        1.5553979626
 H         -1.1678339524       -2.6202554620        1.0362289449
 H         -5.9229232069       -1.2924705905        0.4481166738
 H         -5.9015950877        1.2980469009       -0.4926490043
 H         -4.7302725430        4.8992878083       -2.7853407580
 H         -4.7263917186        5.5364081301       -1.1151754760
 H         -6.2559053940        5.3974493920       -2.0153155317
 H         -2.8922033927        4.1515654843       -1.5497544417
 H         -1.1234491723        2.5899744850       -0.9590955950
 H         -0.1318710344        1.8525818430        1.0825965108
 H          2.3192135735        1.8719189807        1.0493012879
 H          6.7107375126        1.5622759534        2.6885513891
 H          7.9908192827        0.5189146593        2.0320286574
 H          6.7237285659       -0.1491033983        3.0849685952
 H          7.9352836773       -0.4194626951       -2.1445810803
 H          6.6208135480        0.2246332581       -3.1531303683
 H          6.6583932740       -1.4883526749       -2.7656606347
 H          2.3156115462       -1.8940090420       -0.9857058665
 H         -0.1355063723       -1.8858157209       -0.9908759131
  57
        -93.12278731
 C         -5.4467644380       -4.9421875185        1.7564810749
 O         -5.6735083106       -3.6528384102        1.2466709506
 C         -4.5991444333       -2.8468451556        0.9903482721
 C         -3.2669936611       -3.2216739585        1.1838779997
 C         -2.2264595291       -2.3534874268        0.8997037188
 C         -2.5284575561       -1.0964968199        0.4060143796
 C         -3.8740409881       -0.6997177696        0.2306698645
 C         -4.9061227954       -1.5747754281        0.5177203572
 C         -3.8432493453        0.6605482331       -0.2333407874
 C         -4.8322593184        1.5522719908       -0.6083641621
 C         -4.4642346748        2.8152037318       -1.0614573683
 O         -5.4974567632        3.6386287001       -1.4135333534
 C         -5.2014250918        4.9095346223       -1.9342898321
 C         -3.1141458512        3.1655287526       -1.1448420430
 C         -2.1168058538        2.2804233540       -0.7730465664
 C         -2.4811395727        1.0316772886       -0.3012343869
 N         -1.6917146097       -0.0394388412        0.0871438494
 C         -0.2988372184       -0.0518837299        0.1044105417
 C          0.4051277735        0.9915419276        0.7054096002
 C          1.7834179072        0.9981508013        0.6957362163
 C          2.4914779558       -0.0297539293        0.0752279518
 C          3.9558729006        0.0063890416        0.0234489860
 C          4.7285770817        0.2518697403        1.1674548714
 C          4.1314274067        0.4175382906        2.4352063845
 N          3.6875972763        0.5189729040        3.4882800158
 C          6.1307110693        0.2910168452        1.0597587096
 C          6.9896968082        0.5362108781        2.2538662271
 N          6.7437916852        0.1085389320       -0.0965694095
 C          6.0491483624       -0.1230348579       -1.1967437020
 C          6.8170117334       -0.2977966265       -2.4630643501
 C          4.6442091081       -0.1879319375       -1.1830575183
 C          3.9551769034       -0.4002944239       -2.3962372205
 N          3.4320700944       -0.5153337513       -3.4113326174
 C          1.7864270155       -1.0789221736       -0.5123456341
 C          0.4081999650       -1.0957144014       -0.4918314584
 H         -4.9387586994       -4.9100133641        2.7263225841
 H         -6.4336757450       -5.3848119914        1.8842572969
 H         -4.8645370138       -5.5564212236        1.0611563200
 H         -3.0260828882       -4.2004284460        1.5670836755
 H         -1.2066707288       -2.6588620792        1.0782141112
 H         -5.9383507726       -1.2927358934        0.3918673242
 H         -5.8762486717        1.2890645419       -0.5672412052
 H         -4.5993493134        4.8423314626       -2.8467232008
 H         -4.6821894772        5.5367930659       -1.2015334212
 H         -6.1635440830        5.3606387241       -2.1729804940
 H         -2.8240184909        4.1379026744       -1.5095677249
 H         -1.0807673155        2.5665009158       -0.8710063826
 H         -0.1362153908        1.7871714513        1.1933641489
 H          2.3163013020        1.8179952835        1.1548349216
 H          6.7128427988        1.4717856124        2.7379998014
 H          8.0310394336        0.5757457424        1.9478717201
 H          6.8562985788       -0.2619686977        2.9836432929
 H          6.5265804854       -1.2189778584       -2.9656509444
 H          7.8801841368       -0.3158654625       -2.2423682045
 H          6.6059114443        0.5270877733       -3.1435208182
 H          2.3225212558       -1.8919268456       -0.9797914449
 H         -0.1299513749       -1.9027008864       -0.9643964944
