  57
  -92.7566951994000       0.213158341431359      !
 C         -6.5578911632       -3.8576479459       -0.1688259431
 O         -5.1769357509       -4.1099495266       -0.1197055474
 C         -4.3244019661       -3.0428034681       -0.0647366552
 C         -2.9612764552       -3.3775958714       -0.0388963086
 C         -1.9776045983       -2.4162717129        0.0217461207
 C         -2.3682230601       -1.0842459198        0.0692285201
 C         -3.7329306095       -0.7347340777        0.0125093917
 C         -4.7182653930       -1.7154509321       -0.0490514739
 C         -3.7890013978        0.6996554131        0.0091162567
 C         -4.8501429176        1.5990636990       -0.0152989843
 C         -4.5646146651        2.9536451999        0.0142096017
 O         -5.5014203875        3.9489705024       -0.0132902722
 C         -6.8563208084        3.5857925908       -0.0903972395
 C         -3.2341786178        3.3955989488        0.0894007070
 C         -2.1757692825        2.5149950349        0.1148623947
 C         -2.4551534852        1.1559656947        0.0522715381
 N         -1.5997687760        0.0683379463        0.0939515149
 C         -0.2083764316        0.1071639440        0.1099688732
 C          0.5045163115       -0.7030119914        0.9941744597
 C          1.8816629414       -0.7141894134        0.9710134337
 C          2.5827564709        0.0972691243        0.0792752341
 C          4.0447172284        0.0442525959        0.0240585488
 C          4.8306582781        1.2053190953       -0.0067357697
 C          4.2511611500        2.4892092720        0.0744435000
 N          3.8295720645        3.5529047991        0.1573990983
 C          6.2314308764        1.0905493845       -0.0709989707
 C          7.1038747399        2.2995340761       -0.1048377290
 N          6.8318476453       -0.0862002027       -0.1032211471
 C          6.1247037660       -1.2023642734       -0.0777963126
 C          6.8779677997       -2.4885088828       -0.1282709374
 C          4.7199574801       -1.1851948284       -0.0140772612
 C          4.0189977655       -2.4095192459       -0.0486838856
 N          3.4969035605       -3.4297507360       -0.1021217606
 C          1.8684988150        0.9362267793       -0.7752493049
 C          0.4902052869        0.9365592076       -0.7671619825
 H         -6.8317192621       -3.2875136842       -1.0631657798
 H         -7.0359274785       -4.8353314125       -0.2066884048
 H         -6.9019900075       -3.3219724216        0.7224740609
 H         -2.7038575574       -4.4239235730       -0.0747363033
 H         -0.9370298980       -2.7009258903        0.0147842325
 H         -5.7553251057       -1.4246395482       -0.0924306139
 H         -5.8611531288        1.2267898552       -0.0499757230
 H         -7.0700171288        3.0177957659       -1.0023067082
 H         -7.4128455686        4.5215373883       -0.1119673162
 H         -7.1676234397        3.0014002579        0.7822066461
 H         -3.0641345574        4.4594331515        0.1320727941
 H         -1.1637785127        2.8802559160        0.1958073635
 H         -0.0295198590       -1.3127932908        1.7060990078
 H          2.4205715077       -1.3357684137        1.6707822779
 H          8.1456051509        1.9930171596       -0.1162983376
 H          6.9156813803        2.9290445274        0.7638347874
 H          6.8911380832        2.8943316655       -0.9925194195
 H          7.9439513025       -2.2831049217       -0.1542882606
 H          6.5949406805       -3.0564071584       -1.0139399693
 H          6.6440275839       -3.1012840297        0.7413381830
 H          2.3962363048        1.5597528816       -1.4817254422
 H         -0.0539932008        1.5563108876       -1.4626665586
  57
  -92.7564415451000       0.162978714234261      !
 C         -6.6823728881       -3.9189573129        0.0554061885
 O         -5.3060790940       -4.2010929693        0.0206875382
 C         -4.4309190060       -3.1517668067        0.0104026139
 C         -3.0747406285       -3.5121806271       -0.0210600719
 C         -2.0707367157       -2.5693298643       -0.0233139103
 C         -2.4329034198       -1.2291813486        0.0188965138
 C         -3.7920966234       -0.8560967802        0.0138113343
 C         -4.7979117453       -1.8161112920        0.0151642426
 C         -3.8254076660        0.5798769086       -0.0098606299
 C         -4.8581270539        1.5014428734       -0.0036571505
 C         -4.5512281231        2.8579830805       -0.0022300854
 O         -5.6256351129        3.7040837983       -0.0083175899
 C         -5.3939955905        5.0900744343       -0.0082411778
 C         -3.2179616155        3.2762764643        0.0182645794
 C         -2.1772402567        2.3637299057        0.0138780135
 C         -2.4796536350        1.0135211725       -0.0249579343
 N         -1.6422456853       -0.0906478630       -0.0056830392
 C         -0.2513795171       -0.0610843424       -0.0079283630
 C          0.4744851971       -0.8723077444        0.8650214982
 C          1.8520076415       -0.8477721751        0.8552959190
 C          2.5401505486        0.0044112600       -0.0074611172
 C          4.0036028754        0.0426895227       -0.0046748683
 C          4.7025397768        1.2580556454        0.0387225941
 C          4.0235341846        2.4910641714        0.1354180739
 N          3.5158961755        3.5151102010        0.2354080170
 C          6.1089866273        1.2473724474        0.0416141561
 C          6.8894621958        2.5170418345        0.0958505362
 N          6.7949022037        0.1185920928        0.0000597377
 C          6.1712960901       -1.0458389497       -0.0432874674
 C          7.0196527673       -2.2711820347       -0.0948561620
 C          4.7675064660       -1.1328546759       -0.0448839759
 C          4.1571518319       -2.4013713762       -0.1415047175
 N          3.7076069494       -3.4519381545       -0.2409422339
 C          1.8131074904        0.8216133123       -0.8721493312
 C          0.4360058122        0.7813976695       -0.8823022753
 H         -7.0027709013       -3.3653866054       -0.8336410054
 H         -7.1819646493       -4.8863382908        0.0751867779
 H         -6.9548407410       -3.3530699714        0.9526081446
 H         -2.8385168001       -4.5638322040       -0.0483046386
 H         -1.0373979791       -2.8754239933       -0.0724394462
 H         -5.8287649706       -1.5020533572        0.0119457599
 H         -5.8915513477        1.1957381748        0.0056495622
 H         -4.8608950843        5.4114234059        0.8927562767
 H         -6.3798170680        5.5524952934       -0.0245493404
 H         -4.8335425438        5.4063159693       -0.8943250632
 H         -2.9757147864        4.3265321561        0.0444695101
 H         -1.1573913403        2.7139030883        0.0559053169
 H         -0.0493724866       -1.5037529855        1.5653970892
 H          2.4004844074       -1.4665406613        1.5501774983
 H          7.9512091869        2.2886860652        0.1069364191
 H          6.6275610805        3.0846538634        0.9881162597
 H          6.6599618514        3.1403322476       -0.7678356176
 H          6.7953049060       -2.8494975778       -0.9904668627
 H          6.8179329197       -2.9086298482        0.7653906467
 H          8.0675248815       -1.9857093881       -0.0978642339
 H          2.3322456506        1.4643821487       -1.5678511978
 H         -0.1165500091        1.3860737363       -1.5843166202
  57
  -92.7563284049000       0.144588999110312      !
 C         -5.4415074041       -5.1549541104        0.3689570405
 O         -5.6582627568       -3.7722370468        0.2445255027
 C         -4.5761444793       -2.9365416818        0.2104757774
 C         -3.2474241442       -3.3613057160        0.2957497678
 C         -2.1988944870       -2.4587025973        0.2477246703
 C         -2.4889335887       -1.1133952313        0.1002675688
 C         -3.8310136266       -0.6708174100        0.0436825688
 C         -4.8712355635       -1.5823261008        0.0941811425
 C         -3.7860855839        0.7622405197       -0.0471910816
 C         -4.7817378366        1.7265142074       -0.1599364691
 C         -4.4010666518        3.0541546317       -0.2661190393
 O         -5.2647857178        4.1070631005       -0.3781503045
 C         -6.6439465000        3.8380856019       -0.3911975398
 C         -3.0411531211        3.4014459036       -0.2793304959
 C         -2.0472568215        2.4546467592       -0.1687052476
 C         -2.4245580370        1.1253192707       -0.0295168695
 N         -1.6435805934       -0.0168897511        0.0604791989
 C         -0.2525201447       -0.0409650131        0.0791336230
 C          0.4559027296       -0.9236984349       -0.7362750216
 C          1.8341444381       -0.9159652386       -0.7376516944
 C          2.5396477858       -0.0166380299        0.0610773965
 C          4.0017637639        0.0344381008        0.0171218449
 C          4.7874778783       -1.1259506141        0.0752784305
 C          4.2063326875       -2.4010949241        0.2386252269
 N          3.7823416605       -3.4563147374        0.3903069838
 C          6.1888688055       -1.0157203875        0.0194298357
 C          7.0610528282       -2.2238222092        0.0818517306
 N          6.7904987156        0.1561319820       -0.0855751136
 C          6.0837990462        1.2714055224       -0.1434519204
 C          6.8386726349        2.5514996990       -0.2672654398
 C          4.6784005624        1.2584180999       -0.0964555618
 C          3.9789341632        2.4774424792       -0.2234786087
 N          3.4591017164        3.4920527324       -0.3523653700
 C          1.8290367336        0.8527185676        0.8885861734
 C          0.4520326504        0.8349065781        0.9060365051
 H         -4.9327996822       -5.4020356344        1.3068441062
 H         -6.4318139072       -5.6082718241        0.3689046934
 H         -4.8642902339       -5.5513576174       -0.4731586237
 H         -3.0155630988       -4.4083392008        0.4074327526
 H         -1.1827135725       -2.8105064774        0.3390599956
 H         -5.9019222795       -1.2702142213        0.0517742080
 H         -5.8152160268        1.4213159933       -0.1707106231
 H         -6.9233021815        3.2082811505       -1.2425680881
 H         -7.1328981395        4.8065220918       -0.4854065673
 H         -6.9696069990        3.3576755845        0.5375793347
 H         -2.7935755215        4.4452994901       -0.3866553784
 H         -1.0097235454        2.7477866441       -0.2081216229
 H         -0.0810523685       -1.5923254850       -1.3909433184
 H          2.3690444303       -1.5835134808       -1.3969808282
 H          6.8139255575       -2.9139632678       -0.7238251508
 H          6.9089714059       -2.7510262015        1.0231571335
 H          8.1012776275       -1.9230019038       -0.0013392062
 H          6.6263974521        3.2000955287        0.5821189815
 H          6.5365771716        3.0835987588       -1.1686344872
 H          7.9034670515        2.3414806099       -0.3066102562
 H          2.3607341496        1.5252000509        1.5455390622
 H         -0.0888798094        1.4897852101        1.5710923469
  57
  -92.7561513904000       0.119890568552268      !
 C         -6.6975536888       -3.7603760366        0.0007729146
 O         -5.3255848331       -4.0622106617       -0.0215926189
 C         -4.4341080186       -3.0258037389       -0.0188283145
 C         -3.0835752062       -3.4078639801       -0.0490291915
 C         -2.0652054569       -2.4810714214       -0.0404797537
 C         -2.4065142127       -1.1356908693        0.0110672566
 C         -3.7598951462       -0.7396186182        0.0071778053
 C         -4.7804244173       -1.6853048053       -0.0019856068
 C         -3.7675319057        0.6956829043       -0.0033223292
 C         -4.7980266722        1.6304892816        0.0109877931
 C         -4.4659790432        2.9745791420        0.0254907710
 O         -5.3686075690        4.0013661829        0.0327778185
 C         -6.7371827623        3.6847515700        0.0189861149
 C         -3.1194867616        3.3711492290        0.0480894383
 C         -2.0914110544        2.4552487064        0.0346609994
 C         -2.4185644388        1.1062786636       -0.0143286092
 N         -1.5991264471       -0.0104700064       -0.0038207658
 C         -0.2071168588       -0.0024182833       -0.0042479712
 C          0.5038115008       -0.8217332861        0.8728330280
 C          1.8816706716       -0.8193341756        0.8646898515
 C          2.5845149297        0.0150579808       -0.0037558568
 C          4.0486697897        0.0240388036       -0.0029330080
 C          4.7736297267        1.2246836485        0.0173895492
 C          4.1233519284        2.4747968777        0.0911221422
 N          3.6421125165        3.5129755803        0.1723029384
 C          6.1796526185        1.1840369516        0.0189601173
 C          6.9870886569        2.4374945947        0.0475012776
 N          6.8413439280        0.0402900450        0.0003115439
 C          6.1930370480       -1.1111534980       -0.0203568501
 C          7.0151407978       -2.3549189775       -0.0490206029
 C          4.7876032581       -1.1681215230       -0.0219516808
 C          4.1529827047       -2.4262838855       -0.0953847754
 N          3.6873150929       -3.4716293146       -0.1758607145
 C          1.8716385183        0.8403767546       -0.8726729081
 C          0.4938414051        0.8253904280       -0.8814057659
 H         -6.9995032889       -3.1911643035       -0.8849848911
 H         -7.2116002445       -4.7203235148        0.0024229954
 H         -6.9726916344       -3.2020879501        0.9021210109
 H         -2.8645099406       -4.4629281586       -0.0846029097
 H         -1.0363154368       -2.8020683575       -0.0883485947
 H         -5.8075579461       -1.3583179280       -0.0034064027
 H         -5.8215717906        1.2924885866        0.0176712070
 H         -7.0124956544        3.1258159812       -0.8819530238
 H         -7.2616483435        4.6390677483        0.0233703541
 H         -7.0270979432        3.1100232354        0.9052152916
 H         -2.9115005123        4.4285015406        0.0817856769
 H         -1.0657255178        2.7870671885        0.0771894277
 H         -0.0313068947       -1.4421371893        1.5746897680
 H          2.4189178073       -1.4425418279        1.5642999449
 H          8.0438692032        2.1872176534        0.0444410467
 H          6.7519818868        3.0186976859        0.9384809977
 H          6.7562858327        3.0576506299       -0.8178878667
 H          6.8122480869       -2.9198798173       -0.9583523298
 H          6.7670227563       -2.9955322282        0.7961993663
 H          8.0685789923       -2.0932052653       -0.0125226217
 H          2.4013247542        1.4701611422       -1.5721625026
 H         -0.0486064168        1.4383657964       -1.5841538318
  57
  -92.7560778917000       0.110919360220052      !
 C         -6.7615034758       -3.4254789562        1.4537851446
 O         -5.3979192144       -3.7617754907        1.4898970403
 C         -4.4884228783       -2.8221119114        1.0912379311
 C         -3.1472027657       -3.2313896140        1.1601745328
 C         -2.1129687041       -2.3950942998        0.8040266180
 C         -2.4273169722       -1.1113955555        0.3773033990
 C         -3.7725249491       -0.7010716993        0.2719342110
 C         -4.8094150900       -1.5550898681        0.6345077149
 C         -3.7536269965        0.6360233285       -0.2492080854
 C         -4.7638725322        1.5502373344       -0.5320105494
 C         -4.4051580121        2.8020745167       -1.0022696431
 O         -5.2851152652        3.7977066076       -1.3236102209
 C         -6.6583439802        3.5511807672       -1.1592489135
 C         -3.0514976653        3.1349719285       -1.1681945741
 C         -2.0436029919        2.2389602785       -0.8911884983
 C         -2.3983829418        0.9720381458       -0.4466789106
 N         -1.6005093176       -0.0931882035       -0.0643690893
 C         -0.2070448343       -0.1052717545       -0.0694759530
 C          0.4992384983       -0.5362639266        1.0529940540
 C          1.8772172577       -0.5077793122        1.0597692375
 C          2.5828557152       -0.0582717461       -0.0553611986
 C          4.0468070465        0.0057385221       -0.0323057106
 C          4.7298622414        0.5925107187        1.0431057336
 C          4.0371084252        1.1796567291        2.1233742238
 N          3.5215644453        1.6887981062        3.0128498357
 C          6.1351839583        0.6483321943        1.0234481166
 C          6.8971460797        1.2733167486        2.1426439694
 N          6.8351703829        0.1580657728        0.0155056031
 C          6.2271272766       -0.4035985220       -1.0145457413
 C          7.0913619026       -0.9354548443       -2.1072484957
 C          4.8252402657       -0.5015747553       -1.0824835270
 C          4.2366116347       -1.1523156392       -2.1875876182
 N          3.8083013842       -1.7044088983       -3.0972639468
 C          1.8750334480        0.3483878789       -1.1852067109
 C          0.4966210425        0.3288482925       -1.1924270471
 H         -6.9831812968       -2.5718663633        2.1034145180
 H         -7.0950248014       -3.2020907451        0.4346453027
 H         -7.2924658655       -4.3026999434        1.8203605598
 H         -2.9496857956       -4.2350620453        1.5011290036
 H         -1.0917488181       -2.7408932193        0.8457662645
 H         -5.8297911744       -1.2188774103        0.5466720460
 H         -5.7927199969        1.2711033966       -0.3724249751
 H         -6.9978368173        2.7229283394       -1.7904963898
 H         -7.1619681717        4.4663918290       -1.4667633612
 H         -6.9066280928        3.3365588286       -0.1142154353
 H         -2.8220180663        4.1289924972       -1.5172375174
 H         -1.0104996772        2.5288839544       -1.0032095358
 H         -0.0386958608       -0.8653028279        1.9284063988
 H          2.4121624990       -0.8463156784        1.9348868896
 H          7.9609871911        1.2178119269        1.9316780975
 H          6.6836039645        0.7610767290        3.0800843172
 H          6.6026968544        2.3150801073        2.2650272082
 H          8.1338023687       -0.7480378519       -1.8671375883
 H          6.8429107709       -0.4588423974       -3.0547600818
 H          6.9318582149       -2.0064097734       -2.2280173075
 H          2.4073356292        0.7012188771       -2.0562889992
 H         -0.0434886295        0.6349058486       -2.0748452810
  57
  -92.7557527040000       7.862514082664154E-002 !
 C         -6.6515726487       -3.7094120223        1.3841464908
 O         -5.2727123976       -3.9728606843        1.4491856973
 C         -4.4068511173       -2.9808676518        1.0832572752
 C         -3.0476859279       -3.3203368254        1.1708015892
 C         -2.0522668350       -2.4257906464        0.8458226763
 C         -2.4259095817       -1.1539466040        0.4321414433
 C         -3.7882248099       -0.8133892311        0.3096839565
 C         -4.7854819203       -1.7243012271        0.6402721082
 C         -3.8323401584        0.5304938752       -0.1954491029
 C         -4.8709649786        1.3972070658       -0.4887193735
 C         -4.5732272185        2.6773621223       -0.9434196508
 O         -5.6536618818        3.4698990470       -1.2177087603
 C         -5.4321515677        4.7823627105       -1.6678965329
 C         -3.2427338531        3.0823349567       -1.0809941010
 C         -2.1962270263        2.2242505328       -0.7906860385
 C         -2.4895978036        0.9397898829       -0.3670390396
 N         -1.6444581964       -0.0876809094        0.0177042394
 C         -0.2519518637       -0.0521120717        0.0039296249
 C          0.4746551493       -0.4799265249        1.1148366920
 C          1.8523023048       -0.4401374446        1.1022026940
 C          2.5379663457        0.0178548461       -0.0218321822
 C          4.0029679384        0.0533072682       -0.0330206638
 C          4.7282700963        0.6116518324        1.0295580833
 C          4.0776612484        1.2137318702        2.1275170651
 N          3.5967163689        1.7317240664        3.0309255625
 C          6.1339892306        0.6218419363        0.9785693243
 C          6.9412528048        1.2133602043        2.0841219484
 N          6.7951066530        0.1146528990       -0.0470585702
 C          6.1463838196       -0.4203065508       -1.0665789470
 C          6.9683191925       -0.9799149680       -2.1779184482
 C          4.7410707127       -0.4710409331       -1.1040171989
 C          4.1067385321       -1.0946026179       -2.1995344173
 N          3.6394787541       -1.6251463251       -3.1028915154
 C          1.8098938268        0.4403700047       -1.1329026546
 C          0.4318123067        0.4111175667       -1.1199046719
 H         -6.9712327318       -3.4857317466        0.3608077371
 H         -7.1428025233       -4.6204911428        1.7224899284
 H         -6.9346304441       -2.8806719906        2.0418165564
 H         -2.8031384149       -4.3176934313        1.4996917390
 H         -1.0155864170       -2.7199328556        0.8997427456
 H         -5.8191869336       -1.4374514555        0.5381930674
 H         -5.9023173856        1.1089934083       -0.3673424323
 H         -4.8907484616        5.3786997380       -0.9257418124
 H         -6.4214869409        5.2118669037       -1.8189781162
 H         -4.8846580518        4.7978164581       -2.6163448002
 H         -3.0079991928        4.0811668345       -1.4124788774
 H         -1.1775488874        2.5687108122       -0.8824855841
 H         -0.0479554867       -0.8220171090        1.9945141125
 H          2.4027012444       -0.7821826795        1.9663506988
 H          6.7285846009        0.7048936652        3.0237931424
 H          6.6880736017        2.2646761154        2.2166245308
 H          7.9977245352        1.1198201915        1.8506461599
 H          6.8122366349       -2.0557133356       -2.2549322908
 H          8.0187200196       -0.7813233593       -1.9862466872
 H          6.6770551619       -0.5381431432       -3.1298327972
 H          2.3267988583        0.8084771017       -2.0069987157
 H         -0.1234755937        0.7253134370       -1.9899643791
  57
  -92.7554875828000       5.939093586900544E-002 !
 C         -6.6822638643       -3.5258135554        1.3812687311
 O         -5.3091441614       -3.8100968453        1.4646447428
 C         -4.4226100090       -2.8399594973        1.0877126742
 C         -3.0704502614       -3.2028404289        1.1917597883
 C         -2.0566511482       -2.3326436869        0.8590378896
 C         -2.4032021461       -1.0609724970        0.4212896701
 C         -3.7585430426       -0.6970874149        0.2818690304
 C         -4.7747674216       -1.5852591257        0.6202277032
 C         -3.7724445295        0.6379085570       -0.2446270858
 C         -4.8067516076        1.5140270374       -0.5586518382
 C         -4.4806369768        2.7749772036       -1.0282616442
 O         -5.3867658864        3.7362598468       -1.3790152936
 C         -6.7545650762        3.4387207774       -1.2547615013
 C         -3.1355786945        3.1543838701       -1.1619784551
 C         -2.1040242914        2.2959242289       -0.8543445308
 C         -2.4250667077        1.0195044179       -0.4110857401
 N         -1.6007965357       -0.0156951042       -0.0034400463
 C         -0.2075283125       -0.0029184135       -0.0081557943
 C          0.5054108797       -0.4321627356        1.1109215915
 C          1.8836976225       -0.4162837398        1.1060147534
 C          2.5837397989        0.0225410139       -0.0168764091
 C          4.0490772704        0.0324905703       -0.0238776727
 C          4.7849173906        0.5666225775        1.0440741997
 C          4.1483773159        1.1650665128        2.1524511034
 N          3.6786690156        1.6761510198        3.0654822431
 C          6.1906925876        0.5529597515        0.9917910695
 C          7.0097188334        1.1113198636        2.1059654879
 N          6.8424459247        0.0487855112       -0.0412773746
 C          6.1839299879       -0.4633905871       -1.0662086332
 C          6.9948578943       -1.0128951216       -2.1905431087
 C          4.7779348995       -0.4936857808       -1.1005735852
 C          4.1350849307       -1.1024356082       -2.1994394913
 N          3.6650871009       -1.6254437103       -3.1056039497
 C          1.8686047438        0.4492938469       -1.1349550279
 C          0.4902674509        0.4399950493       -1.1314279680
 H         -6.9887529259       -3.3167248258        0.3506445812
 H         -7.1916414752       -4.4221933300        1.7317781981
 H         -6.9586421717       -2.6804066617        2.0205528030
 H         -2.8473619899       -4.1986741779        1.5398225549
 H         -1.0261153510       -2.6451008594        0.9255297513
 H         -5.8033962903       -1.2839247898        0.5060129533
 H         -5.8287661111        1.1991497183       -0.4236864941
 H         -7.0432048408        2.5968747036       -1.8931669077
 H         -7.2825742691        4.3336436756       -1.5800585369
 H         -7.0255448264        3.2172633159       -0.2169946113
 H         -2.9324192622        4.1538008549       -1.5119430742
 H         -1.0792335210        2.6213511932       -0.9430792102
 H         -0.0275856131       -0.7572144845        1.9908483230
 H          2.4226532486       -0.7618748618        1.9758353700
 H          6.8141577105        0.5665204319        3.0290529950
 H          6.7519540756        2.1550586280        2.2813269757
 H          8.0633181051        1.0317515312        1.8551000746
 H          8.0502710160       -0.9363267069       -1.9464624767
 H          6.7939466193       -0.4589040636       -3.1071564605
 H          6.7341313718       -2.0544532189       -2.3741652300
 H          2.3958287251        0.8051573330       -2.0078757905
 H         -0.0539908604        0.7547595243       -2.0082032926
  57
  -92.7553448048000       5.106271978533503E-002 !
 C         -5.5606131129       -4.7792245428        1.7641150597
 O         -5.7414650693       -3.4478896709        1.3532095108
 C         -4.6408801477       -2.7022817725        1.0312552182
 C         -3.3236359823       -3.1621515419        1.1139882466
 C         -2.2555040321       -2.3494332300        0.7749571683
 C         -2.5132905212       -1.0554313479        0.3569838520
 C         -3.8441028006       -0.5893052446        0.2455282928
 C         -4.9042028288       -1.4108724596        0.5873377059
 C         -3.7664743941        0.7515736501       -0.2636317950
 C         -4.7372389949        1.7076342865       -0.5424211337
 C         -4.3252264912        2.9476582210       -1.0019106209
 O         -5.1617298890        3.9806526374       -1.3190856016
 C         -6.5442807779        3.7927884268       -1.1516434884
 C         -2.9585348623        3.2253180451       -1.1603531800
 C         -1.9893988552        2.2865337517       -0.8856243133
 C         -2.3983340528        1.0323879853       -0.4519151936
 N         -1.6445000038       -0.0674816468       -0.0736490213
 C         -0.2525574040       -0.1247347348       -0.0795249096
 C          0.4460379393       -0.5755385446        1.0399689670
 C          1.8244735200       -0.5631130380        1.0495802273
 C          2.5381704082       -0.1125866098       -0.0600913895
 C          4.0010243593       -0.0338844398       -0.0286744694
 C          4.6695328964        0.5591786109        1.0527463237
 C          3.9642829971        1.1175820967        2.1401188986
 N          3.4373317409        1.6108096954        3.0318165839
 C          6.0727928562        0.6535296512        1.0323184228
 C          6.8182324759        1.2950756918        2.1532905219
 N          6.7850771238        0.1892977190        0.0206759936
 C          6.1915999163       -0.3817584254       -1.0126997929
 C          7.0690939811       -0.8784979143       -2.1114049395
 C          4.7925932569       -0.5142906038       -1.0819299330
 C          4.2220500017       -1.1642557708       -2.1969568507
 N          3.8044467396       -1.7498276596       -3.0913888248
 C          1.8375779428        0.2989611708       -1.1929973896
 C          0.4594526244        0.2960785466       -1.2027191031
 H         -4.9785764426       -4.8423974477        2.6897126816
 H         -6.5614509647       -5.1691441312        1.9441490371
 H         -5.0748511554       -5.3793732006        0.9873936104
 H         -3.1173268249       -4.1686856892        1.4412016202
 H         -1.2484542672       -2.7344303947        0.8264878088
 H         -5.9268108701       -1.0790901165        0.5116296887
 H         -5.7763657741        1.4674002499       -0.3881111596
 H         -6.9213977208        2.9845319556       -1.7871746129
 H         -7.0081315477        4.7313880521       -1.4511625086
 H         -6.7977809680        3.5815969407       -0.1073393317
 H         -2.6861803980        4.2112565779       -1.5015271521
 H         -0.9447853316        2.5350058503       -0.9906092044
 H         -0.0974627516       -0.9020273092        1.9129413349
 H          2.3534984199       -0.9119406620        1.9242836770
 H          6.4783003784        2.3202512357        2.2956997468
 H          7.8811423354        1.2903529084        1.9306919942
 H          6.6387089427        0.7589051088        3.0844759845
 H          6.8506876736       -0.3480288539       -3.0378139120
 H          6.8917862603       -1.9379878193       -2.2914237340
 H          8.1093628947       -0.7209793523       -1.8421568259
 H          2.3756191357        0.6463568286       -2.0627096706
 H         -0.0756243975        0.6097382231       -2.0855205652
  57
  -92.7549308567000       3.295084589791517E-002 !
 C         -5.3112590884       -5.0132227687        1.7636219331
 O         -5.5779858052       -3.7093765001        1.3137860796
 C         -4.5261614422       -2.8804280076        1.0376788381
 C         -3.1830117991       -3.2324327112        1.1941825163
 C         -2.1660198249       -2.3450918531        0.8858595589
 C         -2.5028525810       -1.0929562178        0.4024256865
 C         -3.8591678026       -0.7164077473        0.2719316602
 C         -4.8678414901       -1.6099388154        0.5850456571
 C         -3.8638167396        0.6446352858       -0.1911895843
 C         -4.8779849671        1.5242772657       -0.5255452786
 C         -4.5441844338        2.7922303338       -0.9909348624
 O         -5.6009037976        3.6046639061       -1.2958429105
 C         -5.3413964988        4.8955523409       -1.7859350843
 C         -3.2030276201        3.1573336878       -1.1333685721
 C         -2.1807275890        2.2852657768       -0.8004490680
 C         -2.5102533581        1.0343498655       -0.3090626383
 N         -1.6924721567       -0.0245291904        0.0530609762
 C         -0.3000527611       -0.0175262202        0.0453041276
 C          0.4023773527        1.0440346590        0.6158656609
 C          1.7804612653        1.0552364786        0.6004550652
 C          2.4911164281        0.0123764745        0.0080183153
 C          3.9558370618        0.0360135523       -0.0231874052
 C          4.7098661655        0.3194316845        1.1249169548
 C          4.0926282529        0.5404561563        2.3744884756
 N          3.6385865849        0.7077115520        3.4146250974
 C          6.1141669599        0.3352713013        1.0444470734
 C          6.9517156004        0.6250479615        2.2437999621
 N          6.7477111613        0.0929994382       -0.0896411466
 C          6.0714547887       -0.1763590015       -1.1926200848
 C          6.8619642775       -0.4290638314       -2.4316463257
 C          4.6655736853       -0.2183957272       -1.2059963045
 C          3.9995596206       -0.4643600082       -2.4254943783
 N          3.5055763696       -0.6481372990       -3.4442653284
 C          1.7873176651       -1.0486361040       -0.5597647259
 C          0.4093416708       -1.0674030499       -0.5378555556
 H         -4.7754573977       -5.0108417138        2.7187830359
 H         -6.2848863512       -5.4815700444        1.9014812107
 H         -4.7379954842       -5.5856501448        1.0265773345
 H         -2.9143965832       -4.2079314546        1.5669437896
 H         -1.1370709019       -2.6330410625        1.0380316855
 H         -5.9078828616       -1.3446294139        0.4911210935
 H         -5.9162302624        1.2485443486       -0.4425040890
 H         -4.7940197778        4.8660044844       -2.7342269886
 H         -4.7824151087        5.4985547407       -1.0623612825
 H         -6.3177427297        5.3489029524       -1.9508134042
 H         -2.9398946707        4.1307480093       -1.5152608598
 H         -1.1531869161        2.5828269910       -0.9429395036
 H         -0.1392156246        1.8484040239        1.0888003647
 H          2.3112730854        1.8889300949        1.0362554145
 H          6.7181068220        1.6126083593        2.6399900942
 H          8.0018731232        0.5821076905        1.9704778236
 H          6.7489224726       -0.0996758100        3.0314846323
 H          7.9214027444       -0.3452624502       -2.2081839603
 H          6.5935243485        0.2902566755       -3.2045360017
 H          6.6488701068       -1.4233978323       -2.8221868005
 H          2.3239286272       -1.8712978617       -1.0092290066
 H         -0.1271336427       -1.8841894610       -0.9950703982
  57
  -92.7547226231000       2.643437407285095E-002 !
 C         -5.3890452550       -4.9933433352        1.7895249798
 O         -5.6311429886       -3.7050150319        1.2842140459
 C         -4.5659648482       -2.8891053706        1.0210199417
 C         -3.2290778526       -3.2526084680        1.2031592458
 C         -2.1984944756       -2.3747492669        0.9125129283
 C         -2.5154288040       -1.1194713625        0.4238541803
 C         -3.8657948178       -0.7341733535        0.2600519850
 C         -4.8878432845       -1.6188349455        0.5534928603
 C         -3.8506313108        0.6272387246       -0.2013641288
 C         -4.8503806798        1.5109933107       -0.5666497011
 C         -4.4970675602        2.7780147022       -1.0200356373
 O         -5.5402441572        3.5930389710       -1.3621644002
 C         -5.2595287527        4.8675377294       -1.8826216031
 C         -3.1508097340        3.1403490578       -1.1134387208
 C         -2.1428146959        2.2632921908       -0.7514335156
 C         -2.4924121322        1.0104507600       -0.2793291742
 N         -1.6905547124       -0.0544684354        0.1005273457
 C         -0.2975283149       -0.0547154262        0.1066784407
 C          0.4020365176        0.9936443335        0.7042188496
 C          1.7800947035        1.0123762739        0.6835864709
 C          2.4921639918       -0.0080238673        0.0553281208
 C          3.9557260850        0.0410815997       -0.0080326105
 C          4.7353525130        0.2910430987        1.1302924189
 C          4.1469083202        0.4489175968        2.4030990722
 N          3.7106229789        0.5443378610        3.4598811276
 C          6.1361855128        0.3427179881        1.0115183019
 C          7.0024897233        0.5930500345        2.1992557553
 N          6.7415959465        0.1679511841       -0.1500304575
 C          6.0402527340       -0.0675063834       -1.2451179755
 C          6.7994897539       -0.2329774202       -2.5178718007
 C          4.6360902485       -0.1447662433       -1.2203817791
 C          3.9392876630       -0.3607373088       -2.4284756704
 N          3.4091262875       -0.4783294131       -3.4396109028
 C          1.7916707494       -1.0621624504       -0.5287905461
 C          0.4138514067       -1.0910985256       -0.4973393859
 H         -4.8736186203       -4.9586548726        2.7553560491
 H         -6.3709878102       -5.4448730843        1.9242351088
 H         -4.8070227951       -5.6010441870        1.0883132688
 H         -2.9765469635       -4.2299763578        1.5824020377
 H         -1.1746761558       -2.6715140154        1.0822644168
 H         -5.9234751951       -1.3456192436        0.4364475367
 H         -5.8916613931        1.2385458920       -0.5177630081
 H         -4.6641867350        4.8074550781       -2.7999569382
 H         -4.7399810491        5.4978605756       -1.1527215898
 H         -6.2274389110        5.3106531903       -2.1127079123
 H         -2.8721364118        4.1159630618       -1.4784431682
 H         -1.1101382244        2.5586529929       -0.8570443655
 H         -0.1423492528        1.7835086917        1.1981184657
 H          2.3094175170        1.8359461863        1.1401292041
 H          6.7213173375        1.5251842930        2.6875193698
 H          8.0409710365        0.6423420634        1.8850631942
 H          6.8819204448       -0.2077326554        2.9284130916
 H          6.5131433279       -1.1556635521       -3.0200415758
 H          7.8645068389       -0.2421516507       -2.3056849185
 H          6.5757441749        0.5913847352       -3.1949120969
 H          2.3311239122       -1.8694884900       -1.0021764016
 H         -0.1209591408       -1.9018302098       -0.9672793603
