95
 energy: -146.300207283722 gnorm: 0.000058542347 xtb: 6.7.1 (edcfbbe)
C            9.11700256353950        2.44427065739589       -1.78995061356696
C            8.44622524199059        2.10528963014240       -0.46489771559145
C            7.38752494315104        3.14095194217746       -0.09431155580094
C            6.67954372867207        2.80702292884237        1.22464775589048
N            5.90823130279615        1.59989117791184        1.12377670776910
C            6.26512630257149        0.33653692667155        1.58248673715208
C            7.38033364778017       -0.04304444631246        2.30007476225234
C            7.49305737098203       -1.38031099409132        2.68304760410914
C            6.50943992332667       -2.30335092936788        2.36634503184655
C            5.38447674412977       -1.94034244483318        1.64183361599022
C            5.25823701075383       -0.61365712893272        1.22783347350003
C            4.29345002632403        0.12654679955561        0.50305339161014
C            4.72267291649540        1.48348767238450        0.47275919890094
C            3.73207936375138        2.24271185356923       -0.18327269740552
C            3.57659477361438        3.58953109291392       -0.52470162068474
C            2.44229440384192        3.97011042815718       -1.21881686400652
C            1.48348963596065        3.04107007859551       -1.59787865319597
C            1.61736807932851        1.68922254002604       -1.27428655728733
C            2.71922986025773        1.29928819441456       -0.54614857818285
N            3.08193658052683        0.01982146056953       -0.10543115599090
C            2.35990026139006       -1.15598670680650       -0.31082021447354
C            3.05213596991327       -2.32245237587741       -0.71186205188206
C            2.34916670739441       -3.50122945651843       -0.90710541957063
C            0.98887445400454       -3.51257495090502       -0.72821594719180
C            0.27345968381503       -2.34910610866048       -0.34590107290361
C            0.98826471135791       -1.17211771232054       -0.12300922921038
C           -1.14187185524012       -2.53365973832277       -0.26570486676587
C           -2.10957007862143       -1.56670653906728        0.02040830320970
C           -3.45086395652632       -1.89907918837814       -0.03676846174071
N           -4.39458864072823       -0.88338267249240        0.17097037082243
C           -5.52373542385767       -0.92744560113635        0.97141765178232
C           -5.98994407743740       -1.95967199662642        1.76923178561867
C           -7.14641503374123       -1.74981811215827        2.49948728027308
C           -7.82516512847333       -0.53422477915292        2.45153281067018
C           -7.35817626756336        0.51457221652238        1.68515990518995
C           -6.19700834489826        0.33234458263314        0.93879980824849
C           -5.40894435124755        1.14305173197413        0.08117593693660
C           -4.32327472308495        0.37450069689316       -0.36200325240684
C           -3.56827807701233        1.17090079467504       -1.26412055949350
C           -2.43872095063174        0.97398355864848       -2.05477476986351
C           -1.98840085314731        2.01721617334290       -2.83842072520219
C           -2.63966087113955        3.24831686959225       -2.84358132190204
C           -3.77204200115471        3.46751453975499       -2.08026787198561
C           -4.24683979242523        2.42816322054492       -1.29443392070136
N           -5.36447397165653        2.38410646764844       -0.48519883808512
C           -6.28120113130671        3.45403553086292       -0.20357800165134
C           -6.00252762827592        4.10088302128426        1.15852231847420
C           -4.65491476985729        4.81726385424076        1.19749849753019
C           -4.38621541980651        5.42641213456835        2.56768908349438
C           -3.86439207933472       -3.20701894034416       -0.34466775757531
C           -2.90629694141634       -4.17923197426585       -0.60418236602462
C           -1.57756252983603       -3.84295736601423       -0.57013806178782
S           -0.15587464466796       -4.86698557178718       -0.92303941890555
O            0.03786246972348       -5.86729707956462        0.09911456100317
O           -0.18227491412284       -5.34353382842777       -2.28492318223435
H            8.38349744197205        2.47192794094902       -2.59265095539209
H            9.60233230899602        3.41644367873711       -1.73585483848798
H            9.86834247143698        1.69888026049651       -2.03782913513987
H            9.20203629990930        2.06090696308169        0.32266419365984
H            7.98252407079838        1.11917925020404       -0.53647977726410
H            7.85401021665531        4.12342725924051        0.00124731333525
H            6.64155979407777        3.19677870893893       -0.89016497654561
H            7.41300954961778        2.68735200439011        2.02435795676416
H            6.00297722067739        3.62457096624170        1.49467584640444
H            8.15111982133208        0.66245411585411        2.56901336065287
H            8.36050899174813       -1.69315503555733        3.24358755425550
H            6.61986696433766       -3.32706268198912        2.69046645022903
H            4.62120420808957       -2.66434574474663        1.40497686395007
H            4.32784671981216        4.31616505445886       -0.25528354963194
H            2.30600180246679        5.00856457327329       -1.48213001860180
H            0.61561056353678        3.36246438194109       -2.15202124623157
H            0.87462678016282        0.97940254020203       -1.60104192863323
H            4.11307463064369       -2.27075473919894       -0.89301170115344
H            2.85843117522155       -4.40334051307497       -1.20911627686368
H            0.48283319982447       -0.28570308160878        0.22793153210691
H           -1.82243478011395       -0.56088431764703        0.28651726450131
H           -5.45981502323237       -2.89710125668006        1.83041840318055
H           -7.52805519006637       -2.54361766546584        3.12339454720402
H           -8.72601950306019       -0.40936786546510        3.03340286877937
H           -7.88092416493983        1.45938442012238        1.66979765304966
H           -1.93707586715375        0.01836805853006       -2.06363131204322
H           -1.11960762650749        1.87607903199349       -3.46389745488297
H           -2.25884706661335        4.04686240740098       -3.46284500235748
H           -4.26833099156438        4.42560859096191       -2.10642099051630
H           -6.20160478173140        4.20057676466057       -0.99653707579340
H           -7.29725936544496        3.04613905327413       -0.21515791796454
H           -6.02220843655449        3.32558088132681        1.92762509641111
H           -6.80162141302703        4.81244690508085        1.37567541295144
H           -3.85917420378090        4.11006449893136        0.95388365910879
H           -4.64169232939263        5.60631019775305        0.44191457034208
H           -3.42471578204504        5.93365063805589        2.57726060570762
H           -4.37376312928886        4.65341634375233        3.33286400591727
H           -5.15838301514996        6.14879275211971        2.82353137275462
H           -4.91525163806441       -3.43491275789329       -0.41742606138960
H           -3.19848598584352       -5.18826778065717       -0.85015522512012
