  95
       -146.29832800
 C          8.5883148284        2.6838087738       -2.1714101365
 C          7.4505878496        2.7604136438       -1.1612618809
 C          7.9679083913        2.6615361575        0.2717223219
 C          6.8359559574        2.6923604232        1.3072215331
 N          5.9851310329        1.5404313272        1.2044566390
 C          6.2889928430        0.2747144800        1.6855418613
 C          7.3740027487       -0.1269871383        2.4404864628
 C          7.4351158806       -1.4584110267        2.8419509879
 C          6.4336833916       -2.3587139852        2.5059248984
 C          5.3415682518       -1.9734012469        1.7468703544
 C          5.2649824135       -0.6491365464        1.3165619130
 C          4.3424235162        0.1147944965        0.5595455096
 C          4.8118056183        1.4518205382        0.5234619445
 C          3.8568382478        2.2302606776       -0.1702707135
 C          3.7435121591        3.5729975310       -0.5361200409
 C          2.6373156290        3.9734421612       -1.2612945844
 C          1.6599340434        3.0642033271       -1.6462334588
 C          1.7487922744        1.7188429917       -1.2994895635
 C          2.8277403843        1.3091900456       -0.5432727343
 N          3.1432491069        0.0309965759       -0.0798795751
 C          2.4125136927       -1.1388593379       -0.3060004626
 C          3.1061756389       -2.3020947176       -0.7054478305
 C          2.4018277397       -3.4756687304       -0.9258582963
 C          1.0392810297       -3.4817775074       -0.7685215661
 C          0.3216419366       -2.3222282505       -0.3831836413
 C          1.0386224164       -1.1485803492       -0.1392919052
 C         -1.0950563855       -2.5074215685       -0.3213883027
 C         -2.0674807787       -1.5508823172       -0.0208804974
 C         -3.4079802446       -1.8880307054       -0.0861219281
 N         -4.3605780658       -0.8896667647        0.1498669353
 C         -5.5049626163       -0.9868258351        0.9309956900
 C         -5.9546855952       -2.0516614565        1.6901859656
 C         -7.1301667517       -1.8932374209        2.4095795567
 C         -7.8385598104       -0.6957963745        2.3848743011
 C         -7.3873934817        0.3875848129        1.6565018624
 C         -6.2084163293        0.2573121539        0.9245883208
 C         -5.4272464289        1.1124639675        0.1089183249
 C         -4.3093613549        0.3837367987       -0.3405207321
 C         -3.5630362839        1.2266774820       -1.2048536715
 C         -2.4154211512        1.0845387800       -1.9828095868
 C         -1.9820141160        2.1647646951       -2.7279172479
 C         -2.6642145114        3.3763078945       -2.7067039469
 C         -3.8173814664        3.5411431023       -1.9541235148
 C         -4.2742677020        2.4662904667       -1.2103615457
 N         -5.4053222326        2.3678699905       -0.4200121124
 C         -6.3676802044        3.3975965972       -0.1418371398
 C         -6.1576484048        4.0176434815        1.2446587152
 C         -4.8431078813        4.7868734686        1.3456294375
 C         -4.6441271708        5.3689183062        2.7391557328
 C         -3.8155717976       -3.1922086477       -0.4267301367
 C         -2.8532377168       -4.1540342410       -0.7018053767
 C         -1.5256639505       -3.8144596299       -0.6519883959
 S         -0.1020177996       -4.8324411402       -1.0019760132
 O          0.0777411694       -5.8495283409        0.0059096854
 O         -0.1071329608       -5.2871557179       -2.3714364090
 H          9.1176482048        1.7381421466       -2.0787208870
 H          8.2028746296        2.7627942599       -3.1846865024
 H          9.2991819550        3.4913495583       -2.0100635441
 H          6.7450407462        1.9491888025       -1.3520840655
 H          6.9139829629        3.7029248261       -1.2904252424
 H          8.5296130471        1.7323543348        0.3890252787
 H          8.6453295320        3.4933064272        0.4748270374
 H          7.2597841276        2.7244006005        2.3158794152
 H          6.2209517569        3.5828624426        1.1618803798
 H          8.1535949219        0.5636324243        2.7232116243
 H          8.2751982958       -1.7909756470        3.4323264499
 H          6.5069299009       -3.3809645573        2.8447678193
 H          4.5648830645       -2.6782308970        1.4952184555
 H          4.5054214043        4.2865428898       -0.2618199722
 H          2.5354242635        5.0106528588       -1.5439635438
 H          0.8142893430        3.4034114623       -2.2237374476
 H          0.9943116232        1.0214625583       -1.6267779663
 H          4.1711122525       -2.2544540677       -0.8634944912
 H          2.9113191070       -4.3768557565       -1.2300398611
 H          0.5319552759       -0.2606018045        0.2063402232
 H         -1.7854388460       -0.5510966785        0.2724468430
 H         -5.4017430935       -2.9765054178        1.7354108632
 H         -7.4990680824       -2.7150184576        3.0038321425
 H         -8.7519377351       -0.6108034897        2.9542879758
 H         -7.9348994482        1.3180979503        1.6590281612
 H         -1.8878092090        0.1437431249       -2.0138536277
 H         -1.1003701049        2.0643604303       -3.3430945010
 H         -2.2965815162        4.2043501834       -3.2939923084
 H         -4.3389633544        4.4859302858       -1.9601405657
 H         -6.2888393165        4.1671639838       -0.9123945528
 H         -7.3677042693        2.9548671711       -0.1973761316
 H         -6.1690232073        3.2217535059        1.9923706131
 H         -6.9916671141        4.6901760847        1.4542859997
 H         -4.0115742490        4.1196094146        1.1096658361
 H         -4.8391737702        5.5960440003        0.6117449944
 H         -3.7063005223        5.9157566313        2.7936481507
 H         -4.6230564787        4.5766001973        3.4838791151
 H         -5.4541993160        6.0507241296        2.9882454162
 H         -4.8651094250       -3.4208187209       -0.5125546992
 H         -3.1397583551       -5.1591494644       -0.9696435165
