95
 energy: -146.300308220084 gnorm: 0.000059476168 xtb: 6.7.1 (edcfbbe)
C            8.49127473397533        2.87058694535852       -2.13483473930256
C            7.35830481199569        2.85334241372517       -1.11663342502987
C            7.88997574413013        2.71193077020074        0.30746840032900
C            6.76618601374767        2.67182226867693        1.35131171251684
N            5.94110713234813        1.50591338586735        1.20726171154469
C            6.27563348450197        0.22814382260841        1.64374074732684
C            7.37707508058703       -0.17386188653702        2.36941436499429
C            7.46979975654919       -1.51989619791803        2.72934920676720
C            6.48088584591971       -2.42554883859381        2.38098371786572
C            5.36905157866309       -2.03764917810386        1.64851714961282
C            5.26258961819963       -0.70177432610572        1.25844848030433
C            4.31654054852262        0.06646954263265        0.53918863047125
C            4.76186358239499        1.42087598943180        0.54072341061061
C            3.78375186192684        2.20270953021049       -0.10885837786107
C            3.63925501278786        3.55716385092056       -0.42526566209418
C            2.51548947781575        3.96064067832617       -1.12344605890023
C            1.55332736343636        3.04781682015357       -1.53102068125718
C            1.67393829192340        1.68890585361781       -1.23185560364691
C            2.76557939625700        1.27658728822352       -0.50123262841615
N            3.11097866223654       -0.01525628758636       -0.08335564395484
C            2.38263606660046       -1.18080527496234       -0.32249488347633
C            3.07126649226132       -2.34150827601576       -0.74537352713238
C            2.36324287245728       -3.51107656364764       -0.97390169931568
C            1.00164118772542       -3.51861753455980       -0.80482739384939
C            0.29009637433483       -2.36094193409088       -0.39914467380781
C            1.00943690058802       -1.19324586384742       -0.14497949411982
C           -1.12692345492510       -2.54095029320971       -0.32911575524374
C           -2.09152674061828       -1.57768488670536       -0.02066248292190
C           -3.43398337969474       -1.90358652760214       -0.08958730150773
N           -4.37586872984550       -0.89192774099543        0.14505534069860
C           -5.50697376969702       -0.95827598450505        0.94074087338391
C           -5.97355699846001       -2.01142033913917        1.71087873459080
C           -7.13188799102473       -1.82210773606471        2.44330546343812
C           -7.81265395824096       -0.60671654215699        2.42471351436807
C           -7.34546622193333        0.46198844512322        1.68666043064942
C           -6.18206572967459        0.30083497062337        0.93901162259254
C           -5.39258494885548        1.13473239526177        0.10510993720538
C           -4.30452963775282        0.37999113667618       -0.35434757315481
C           -3.54720632751848        1.20142184708157       -1.23171509953127
C           -2.41392849871242        1.02766865374637       -2.02242727570992
C           -1.96161393382766        2.09234317877508       -2.77520789276937
C           -2.61484741427269        3.32230527031244       -2.74992751812957
C           -3.75082543972431        3.51907258777072       -1.98629124190466
C           -4.22769060716991        2.45809137651022       -1.23095901743477
N           -5.34817822705937        2.39072672958685       -0.42779518592265
C           -6.27115890308268        3.44951309795740       -0.12509833292425
C           -6.00762709797251        4.05950697122438        1.25678814922354
C           -4.66339584731892        4.77966036068493        1.32812922376128
C           -4.41045215418338        5.35218862465623        2.71698518729425
C           -3.85144452101180       -3.20090370452587       -0.43335726993280
C           -2.89660155362425       -4.17019885877228       -0.71452964871465
C           -1.56673857773884       -3.84007187999340       -0.66727183089631
S           -0.14826122999351       -4.86241877051620       -1.03773745102147
O            0.03552565084515       -5.88697775254245       -0.03806090970025
O           -0.17020945124951       -5.30698977754062       -2.41040968029962
H            9.06374430493353        1.94703954695674       -2.08485956006818
H            8.09557258223046        2.97434436874842       -3.14190835013079
H            9.16586714007745        3.70234170108413       -1.94326346877153
H            6.68562610363280        2.02276172511231       -1.34009679280160
H            6.78187216021307        3.77728258581386       -1.20011162780069
H            8.47811062384951        1.79496015608428        0.38383141976044
H            8.54570366029956        3.55372353531023        0.53859487458808
H            7.19762307098063        2.67135032825795        2.35725498476274
H            6.12948528130167        3.55296574862957        1.24800588142598
H            8.14770379528571        0.52167581063963        2.66403707503120
H            8.32532204970852       -1.85293039941315        3.29662340380274
H            6.57601216384109       -3.45639012163832        2.68703550195379
H            4.60170845508161       -2.74921000963035        1.38827342427013
H            4.38974741857941        4.27562422533448       -0.13351321761609
H            2.39040414987423        5.00537312143146       -1.36673757059426
H            0.69378706498056        3.38709387475899       -2.08739018539003
H            0.92912913236480        0.99077742088700       -1.57851997484555
H            4.13401552124426       -2.29197237849209       -0.91630108485978
H            2.86947529895071       -4.40874695656554       -1.29366035933079
H            0.50655769840784       -0.31198322652567        0.22231882894245
H           -1.80129387938819       -0.58031565384321        0.27246107251491
H           -5.44196059757071       -2.94924319522862        1.74944592008985
H           -7.51368232071112       -2.63211403657135        3.04595395812233
H           -8.71512363453720       -0.49826254504321        3.00736643745977
H           -7.86980460745639        1.40601897753787        1.69405073681760
H           -1.91087654257256        0.07330338222411       -2.05515672971503
H           -1.08979457362797        1.96949096399777       -3.40031801021322
H           -2.23230881464413        4.13788895114316       -3.34546238648086
H           -4.24838969865286        4.47688185372369       -1.98850377841088
H           -6.18683681250950        4.21792907916158       -0.89636259086225
H           -7.28572754306185        3.03887748883051       -0.15747541188004
H           -6.03111421790238        3.26328251740039        2.00406623070471
H           -6.81159897808059        4.76174561707194        1.48602212412731
H           -3.86259680977206        4.08230862770677        1.07295990048946
H           -4.64617109531354        5.58905639816682        0.59446569713396
H           -3.45121062522072        5.86270019878488        2.74994051379552
H           -4.40234339781237        4.55861912626235        3.46086614013448
H           -5.18808547865172        6.06430886172913        2.98479805693764
H           -4.90300005416690       -3.42260676056693       -0.51493272638983
H           -3.19185160963900       -5.17150205598511       -0.98696667563915
