95
 energy: -146.382696214161 gnorm: 0.000060717060 xtb: 6.7.1 (edcfbbe)
C            9.08008558490720        2.45416428172209       -1.82888135480526
C            8.42926448678186        2.12292585466011       -0.49200788117240
C            7.36414203260995        3.15032066344002       -0.11705523953708
C            6.66922568970330        2.81193984294878        1.20704569164618
N            5.90638495639732        1.59746879298546        1.11704211776565
C            6.26373631967940        0.34742631958129        1.56095703607027
C            7.39183409117482       -0.04445971620407        2.27200277162664
C            7.50338241331566       -1.36553819639430        2.64877676023115
C            6.50947135498815       -2.29559096830950        2.33900384668142
C            5.38775062740285       -1.93117472277282        1.62946171816434
C            5.25480765517748       -0.60580170822259        1.21443474956015
C            4.28754308288692        0.14132600652820        0.49566396172456
C            4.70545801489000        1.46781111297937        0.46974805620510
C            3.70369114176284        2.23923909220397       -0.17634282851751
C            3.55679455745692        3.58351558885511       -0.50785470825905
C            2.41895643159389        3.98220645301445       -1.17581115539747
C            1.44176674164991        3.05875167548890       -1.54204349948964
C            1.56566886430410        1.71792258667370       -1.23430110822325
C            2.68374873177816        1.30426078579233       -0.52392854775136
N            3.04542240809041        0.03163664839935       -0.10703012429827
C            2.33983583467709       -1.14827017874357       -0.30969227415140
C            3.02568086691766       -2.30394268655509       -0.69489189415864
C            2.34499065841501       -3.49560106227154       -0.88326695195375
C            0.97945635300767       -3.51222818248122       -0.71418706341219
C            0.27300255167938       -2.36841429828739       -0.35030885523555
C            0.95656974150681       -1.18358047793140       -0.12686882457037
C           -1.17316226491487       -2.56320319705891       -0.27080144294442
C           -2.12024708177638       -1.59072977873621        0.00109563666192
C           -3.47623261582592       -1.92060632349571       -0.03879909221390
N           -4.40704087382582       -0.90658814112021        0.15747498382950
C           -5.55097905188526       -0.93626204010280        0.93657657155065
C           -6.05060335043388       -1.96279618769511        1.72471108379341
C           -7.21054417786309       -1.73403664020785        2.43849178790588
C           -7.86434467663995       -0.50388650411875        2.38862222870350
C           -7.36191620116194        0.53847177814259        1.63966135814253
C           -6.19422416511882        0.33705536081824        0.90848602516902
C           -5.37657567400701        1.14387256260134        0.07286573587908
C           -4.30315233449474        0.37311497524465       -0.36075386161704
C           -3.53238445482899        1.15943711487176       -1.25364009310377
C           -2.40538784936435        0.95242980860154       -2.04977725437410
C           -1.93673552690690        1.99147839682856       -2.82138207802959
C           -2.56699058661020        3.23721966742793       -2.81495120857109
C           -3.69358761451782        3.46790829169446       -2.05503298015604
C           -4.19230103329447        2.42874800665185       -1.27814818739526
N           -5.31264011540753        2.39506133408652       -0.48394586828354
C           -6.22199938690293        3.47157597032044       -0.20202686360355
C           -5.95501863181932        4.10310182107817        1.16923300507553
C           -4.60137220235633        4.80628482890492        1.23049260986032
C           -4.33958842526860        5.39673435976194        2.61013033590778
C           -3.87291946349739       -3.23097612028811       -0.31256551223516
C           -2.92187064007876       -4.20976916240678       -0.55876129201449
C           -1.59055539010497       -3.86360669972053       -0.54672170951099
S           -0.15930575959803       -4.88652031838487       -0.90487145337601
O            0.04689686294334       -5.86995952421174        0.12382264614651
O           -0.18997438231272       -5.35207207374657       -2.26507409729987
H            8.33635518672810        2.46475084893017       -2.62264284946008
H            9.55470329775554        3.43251414774907       -1.79164484933307
H            9.83712088499599        1.71476174359197       -2.07816171499985
H            9.19522787347782        2.09411588516090        0.28653368482441
H            7.97394022838904        1.13188381814060       -0.54666860737264
H            7.82219668860364        4.13769420519393       -0.02909597863613
H            6.61218364464445        3.19567883488155       -0.90798192624142
H            7.41065557053570        2.70036095882526        2.00105320712443
H            5.98966400203182        3.62489355615914        1.48422624509619
H            8.16503766895780        0.66351900573673        2.52955047345940
H            8.37322495807629       -1.68769710921212        3.20158122830481
H            6.62530006225669       -3.31799628286318        2.66606503488018
H            4.61693065031143       -2.65492270771923        1.41125762250847
H            4.32248112533047        4.29965362140671       -0.24925067388838
H            2.28565997460391        5.02251239656483       -1.43269460595233
H            0.56767180510943        3.39583740235009       -2.07817627588637
H            0.81102461210148        1.01787775787931       -1.55695428943504
H            4.09075845754970       -2.25212915531693       -0.85729582324537
H            2.86513865031715       -4.39449641049974       -1.17393645130872
H            0.43806047355219       -0.29920446353706        0.20632175374618
H           -1.83250123912307       -0.57950876101164        0.24106634094319
H           -5.54159017302440       -2.91174270298123        1.79476815280047
H           -7.61707796548329       -2.52343576226430        3.05264350681963
H           -8.77126640621589       -0.36511629295018        2.95790614044101
H           -7.86125414528476        1.49582590749314        1.62526734358983
H           -1.92228369785713       -0.01332069547182       -2.07630410531190
H           -1.07133736939172        1.84183230828194       -3.45004394334170
H           -2.16904578671408        4.03303558407328       -3.42726653117767
H           -4.17473931110501        4.43407097052882       -2.07280433391130
H           -6.12507890995592        4.22515672370477       -0.98657797383071
H           -7.24241918253681        3.07510039789353       -0.23175653327831
H           -5.99034130300875        3.32057728959754        1.93048745344330
H           -6.75016650001858        4.81987501259106        1.38447202647831
H           -3.81068006109373        4.09403215104871        0.98538301699052
H           -4.57330143386505        5.60383714983537        0.48427636757734
H           -3.37325720903383        5.89433452850732        2.63496705138128
H           -4.34229581027299        4.61477045694585        3.36633640487615
H           -5.10716161266298        6.12369581405813        2.86715937610977
H           -4.92334168048573       -3.46946432958601       -0.36625928503216
H           -3.21361628568544       -5.22376452459899       -0.78169369259287
