95
 energy: -146.379380457672 gnorm: 0.000059284290 xtb: 6.7.1 (edcfbbe)
C           10.64672252606275        2.37772093766782        1.48366801433094
C            9.62869926123513        2.73632583255486        0.40706453443467
C            8.65340785975918        1.60116615114794        0.10081428778886
C            7.70916389702098        1.29361464657940        1.26848856369005
N            6.74050109288423        0.29490600093965        0.90978895866678
C            6.84103825592479       -1.06116886324150        1.10351124537649
C            7.84113290609843       -1.78466180134455        1.74182439150095
C            7.69282073167212       -3.15098937053671        1.84943595622722
C            6.56741023219551       -3.80211987015733        1.34085046924746
C            5.57021042999474       -3.10596994095207        0.69588884673970
C            5.69968655945343       -1.72442984708168        0.55310118685802
C            4.92825420672157       -0.68601146658350       -0.02627732908520
C            5.58176555590427        0.51870919475988        0.21371721299952
C            4.78700753722674        1.57049318501241       -0.31328737803934
C            4.91879943905471        2.95303990761128       -0.41261937182637
C            3.92809981136353        3.67097413298614       -1.04715975463489
C            2.82314027330351        3.03079718812427       -1.60565694060076
C            2.66925047733963        1.66044459211872       -1.52849340400787
C            3.63788080933797        0.92557532671198       -0.85991091609233
N            3.72873814081448       -0.44450418020041       -0.67324392280624
C            2.82966554676385       -1.40747404273251       -1.11784549196180
C            3.31005247057044       -2.56648540724100       -1.73298177013554
C            2.42992277720889       -3.53805865112750       -2.18012645754059
C            1.07891524956199       -3.33092991956033       -2.02228911210525
C            0.57650896848438       -2.18245886808576       -1.41438792655904
C            1.45717547060364       -1.21893947498338       -0.94775459007454
C           -0.88376669847341       -2.13239841051372       -1.35174305668894
C           -1.65335019722215       -1.11265269624466       -0.81364892851656
C           -3.04500050131795       -1.20649844751805       -0.86504944270545
N           -3.83492014748875       -0.18646381379324       -0.34633435933692
C           -3.66538294275019        1.17530624004553       -0.53830195320069
C           -2.70901983507326        1.84616587710521       -1.28707583609008
C           -2.76929575450547        3.22479123081240       -1.34341010189320
C           -3.76989754039504        3.93622542520001       -0.68355029803178
C           -4.75070451323705        3.28416408936047        0.03236344685102
C           -4.71364349658133        1.89431343299166        0.10927883140316
C           -5.53200110535629        0.89613162975986        0.70101372253333
C           -4.98601606940010       -0.34870004301299        0.40475452172262
C           -5.76766268128943       -1.33458125134590        1.05725465819296
C           -5.71430947494195       -2.72197679024537        1.19229027387509
C           -6.68623824961664       -3.35388400362584        1.93424966895283
C           -7.71060671626398       -2.63147525815060        2.54900637153184
C           -7.78066675610242       -1.25850884874848        2.44957843820261
C           -6.80626103565563       -0.59864477951318        1.70997503109335
N           -6.63822007054151        0.74818176108398        1.49669180838982
C           -7.49501868594929        1.81855330228749        1.92713936058022
C           -8.40491245420495        2.31348265830798        0.79674052183935
C           -9.41101309084676        1.25328649983624        0.35589571017907
C          -10.27877258453291        1.74895482358476       -0.79379891614422
C           -3.65433855143324       -2.32765040595422       -1.43435937770757
C           -2.88418337540626       -3.35555451199383       -1.95287863147194
C           -1.51367053354771       -3.24181524176865       -1.91152693116620
S           -0.27908886548184       -4.39068875928192       -2.52346083398060
O           -0.28894541376200       -5.61280316756477       -1.76597291271835
O           -0.34418745070701       -4.50196144605838       -3.95575863399509
H           11.17854376093350        1.46736483745483        1.21570998493344
H           11.37464350789377        3.17802223832986        1.59351665542841
H           10.16569141510945        2.22730381528809        2.44678439881905
H           10.16172612155274        2.98903351253266       -0.51195754808123
H            9.06828472254860        3.62156450282895        0.71673870617448
H            8.04614143456953        1.87272749064509       -0.76618635226391
H            9.20979256615970        0.69610567624890       -0.15322625506699
H            8.27207253828886        0.93299851414330        2.13136416371485
H            7.17449716072253        2.20238157081365        1.56153487644422
H            8.71432380863922       -1.29519269102478        2.14657349429540
H            8.45943600228173       -3.73074318470847        2.34167999744537
H            6.48122372330362       -4.87196022294732        1.45821288429048
H            4.69749734252561       -3.61751468531592        0.31836096605928
H            5.78672641687191        3.45267324460311       -0.00907250241890
H            4.01321141705945        4.74428224711617       -1.12881433745643
H            2.07521801933638        3.61808860925516       -2.11698388884130
H            1.82496103190628        1.17825836290075       -1.99707928098869
H            4.37343242825570       -2.68610993449549       -1.86922854841337
H            2.78659745828036       -4.43683657290171       -2.65759960381425
H            1.09958550199195       -0.33911883226882       -0.43708182999968
H           -1.19404351828983       -0.26124242501265       -0.33734672910244
H           -1.94610716102129        1.30984328817243       -1.83044117843551
H           -2.02884318993277        3.76273267363640       -1.91620644709939
H           -3.78195614153570        5.01393544084830       -0.74899449147595
H           -5.53787839506084        3.84047264479621        0.51899614284842
H           -4.91678608212886       -3.28742047948405        0.73399666637131
H           -6.65831693000594       -4.42724848508095        2.04731957075212
H           -8.45952573982280       -3.16042482987076        3.11941033780171
H           -8.57507586077530       -0.71577867779721        2.93920489900230
H           -8.09858056824360        1.46655625799563        2.76650175619783
H           -6.86486070407026        2.64211249779252        2.27945907324724
H           -7.78439784741992        2.59894270302760       -0.05566930499000
H           -8.93691010011703        3.20303689859046        1.14043011469279
H           -8.87664000665070        0.35335970562054        0.04436489305183
H          -10.04880729350477        0.98504264045052        1.20144283938927
H           -9.66360319103993        1.99953642733907       -1.65524305618578
H          -10.83342594214622        2.63748340521917       -0.49936908985303
H          -10.99058353463936        0.98318633784822       -1.09191979211514
H           -4.73116295231380       -2.37409119544877       -1.47877494522574
H           -3.34097691402732       -4.22623081455053       -2.39589169321474
