  90
       -139.57568545
 C         -6.8442263977       -2.9340659964       -1.8518506981
 C         -5.6261836769       -2.5545991693       -2.3916741900
 C         -4.4466784714       -2.8528044942       -1.7385036984
 C         -4.4686724115       -3.5326345380       -0.5202168955
 N         -3.2786291807       -3.8311696642        0.1498879894
 C         -3.1558643827       -5.0255056659        0.8666959980
 C         -3.7265981740       -6.2032134160        0.3828858326
 C         -3.5997879311       -7.3814186152        1.0917594285
 C         -2.8977485817       -7.4106136904        2.2858612136
 C         -2.3248720294       -6.2455104167        2.7686990345
 C         -2.4531536895       -5.0602506698        2.0712373815
 C         -2.2052195892       -2.9296317953        0.1051654490
 C         -0.8919549224       -3.4171662230        0.0280475771
 C          0.1948794798       -2.5705129479       -0.0295351018
 C         -0.0382960318       -1.2025180860       -0.0411474890
 C         -1.3547708782       -0.6975693141        0.0569013041
 C         -2.4366615080       -1.5596827606        0.1378684251
 C         -1.2433990864        0.7343841155        0.0627640167
 C         -2.1810011351        1.7534468718        0.1217967628
 C         -1.7419844984        3.0702547383        0.0580528150
 N         -2.6608510041        4.1295214154        0.1022017352
 C         -2.3384214156        5.2964504877        0.8011068956
 C         -2.7381249574        6.5441037011        0.3209140042
 C         -2.4120241352        7.6939523202        1.0124822711
 C         -1.6773073353        7.6244427458        2.1850743222
 C         -1.2739553917        6.3890970396        2.6643668115
 C         -1.6024983665        5.2326231031        1.9845531070
 C         -3.8970173047        4.0090684515       -0.5392641714
 C         -4.0049344426        3.3179107548       -1.7465941289
 C         -5.2299364273        3.1939778268       -2.3718316900
 C         -6.3642483095        3.7616158037       -1.8147767428
 C         -6.2626677098        4.4529032404       -0.6187475032
 C         -5.0438505480        4.5737503806        0.0196267105
 C         -0.3728002664        3.3483351008       -0.0712579274
 C          0.5719244590        2.3450012875       -0.1098976862
 C          0.1355352156        1.0300764794       -0.0259859681
 N          0.8555481122       -0.1485754163       -0.0862930805
 C          2.2466089471       -0.2576553262       -0.1565109008
 C          2.8419871624       -1.1115867713       -1.0825063628
 C          4.2150554598       -1.2363761954       -1.1297388260
 C          5.0312206742       -0.4994660864       -0.2729723651
 C          6.4925191605       -0.6330644579       -0.3247243951
 C          7.0746521197       -1.9114091576       -0.4997733221
 C          8.4278669529       -2.0784502311       -0.5463925979
 C          9.2791676703       -0.9614882612       -0.4260448548
 N         10.6175738631       -1.1212831649       -0.4762496276
 C         11.3505464444       -0.0467154874       -0.3610738901
 C         10.7833745294        1.2336085610       -0.1891479683
 N          9.4932014767        1.4216350410       -0.1336224202
 C          8.7054472345        0.3295246132       -0.2502633788
 C          7.3077431465        0.4683586557       -0.1997373194
 C          4.4281699582        0.3674345408        0.6373526534
 C          3.0554515507        0.4819404808        0.7042850261
 C         -5.6987668143       -3.9069354420        0.0213096145
 C         -6.8723579275       -3.6126812604       -0.6446603111
 H         -7.7637989169       -2.7025979876       -2.3675521450
 H         -5.5932273713       -2.0288557113       -3.3347793044
 H         -3.4986684304       -2.5638601377       -2.1680807328
 H         -4.2654027602       -6.1852170666       -0.5532581997
 H         -4.0446566598       -8.2861268357        0.7038204220
 H         -2.7979155540       -8.3342975918        2.8354430407
 H         -1.7802286354       -6.2573421164        3.7015313615
 H         -2.0122381892       -4.1515122253        2.4543343043
 H         -0.7349060286       -4.4853699072        0.0151463367
 H          1.1961549421       -2.9713463461       -0.0640718876
 H         -3.4417072020       -1.1752951778        0.2217436396
 H         -3.2334324539        1.5290733785        0.2047890395
 H         -3.3010324407        6.6024236897       -0.5992311202
 H         -2.7257845855        8.6532413293        0.6275314670
 H         -1.4212002566        8.5259810242        2.7206324096
 H         -0.7056886452        6.3239255398        3.5808030250
 H         -1.2946227156        4.2700592550        2.3661842743
 H         -3.1211779989        2.8824607215       -2.1895272712
 H         -5.2976533082        2.6567465191       -3.3065649267
 H         -7.3193955851        3.6656296257       -2.3084054039
 H         -7.1419711655        4.8944944524       -0.1728784276
 H         -4.9717686818        5.1030320559        0.9585814851
 H         -0.0586347561        4.3785660947       -0.1481237978
 H          1.6175187054        2.5840373606       -0.2289036906
 H          2.2221582377       -1.6613010736       -1.7745973593
 H          4.6630645082       -1.8894193732       -1.8641091136
 H          6.4236914948       -2.7702295127       -0.5740722333
 H          8.8773471304       -3.0513520169       -0.6713012305
 H         12.4230938286       -0.1832492893       -0.4019600140
 H         11.4067846521        2.1131438309       -0.0954313741
 H          6.9013682338        1.4612414536       -0.0840388667
 H          5.0440037184        0.9309131111        1.3222453748
 H          2.5986697495        1.1286648515        1.4381166062
 H         -5.7261307807       -4.4262371031        0.9681567299
 H         -7.8170711729       -3.9087450357       -0.2124529384
