90
 energy: -139.525048007439 gnorm: 0.000112195032 xtb: 6.7.1 (edcfbbe)
C           -6.84570322773283       -2.77532272561699       -1.99216916534287
C           -5.60821264406464       -2.42313077408640       -2.50595792745094
C           -4.44928047632668       -2.76375533062740       -1.83688795814129
C           -4.51269014152673       -3.46017595400677       -0.62934212862875
N           -3.34257062122527       -3.79833597330121        0.05699377287796
C           -3.25789650564677       -5.00773815062722        0.75238504512653
C           -3.85902665022109       -6.16032672012578        0.24526028084528
C           -3.77136907713463       -7.35267532262322        0.93632650170291
C           -3.07984977134474       -7.42089223980234        2.13497077910515
C           -2.47687864216483       -6.28077986180500        2.64076003834047
C           -2.56516033656197       -5.08174405267801        1.96132582669783
C           -2.25391107797810       -2.91530424510234        0.05573300781702
C           -0.94710391136713       -3.42259478516964       -0.02114938158099
C            0.15371790824371       -2.59373049402917       -0.02343076661070
C           -0.05689496023051       -1.22252250729500        0.04657291246755
C           -1.36968866513584       -0.69720995326163        0.09323396838784
C           -2.46666837985341       -1.54231013258982        0.11168154094802
C           -1.23432592751026        0.73208936635607        0.09881091606845
C           -2.15239139272541        1.76745951931418        0.14963092356043
C           -1.68503379917074        3.07712569389182        0.14233868220815
N           -2.58961503768378        4.14756908946372        0.16601192832523
C           -3.78974159745847        4.05932820436382       -0.54508303988768
C           -3.83857863639975        3.40005115608183       -1.77407246748130
C           -5.02858325830127        3.30817143256088       -2.46847618645987
C           -6.18526775826474        3.87561765894204       -1.95911021894149
C           -6.14221737730769        4.53477925705080       -0.74136887366908
C           -4.95908057874139        4.62451141704010       -0.03471782386526
C           -2.29533857665468        5.29318208458422        0.91149754420699
C           -2.65297683138353        6.55645773845366        0.43932109633857
C           -2.35971645754373        7.68470091917928        1.17966641478886
C           -1.70083206012780        7.57658618135974        2.39367038636043
C           -1.33877137179580        6.32510519887679        2.86481892607152
C           -1.63418862831189        5.19001474198555        2.13575949611027
C           -0.30464842015534        3.33142678548862        0.11333343220702
C            0.62029197379221        2.31034085001387        0.07959233851494
C            0.15380441585917        1.00235119593338        0.05100513405742
N            0.85119491349601       -0.18611750756858        0.02335623193007
C            2.24752943727803       -0.31981097990807       -0.02303253656834
C            2.99092105371556        0.38086937926903       -0.96878960585242
C            4.36345157710427        0.25219237915516       -1.00523598464705
C            5.03377346822179       -0.58655284591344       -0.11243633081856
C            6.48945882785750       -0.72715385594249       -0.16095021732237
C            7.09757781401808       -1.95557487770886        0.08816576625164
C            8.47089158792194       -2.09853340910634        0.02897826561291
C            9.30028844654258       -1.01863433097556       -0.26908576809039
N           10.62623184050286       -1.11787278814164       -0.32828929171014
C           11.37703743092465       -0.05765644726591       -0.61131198785194
C           10.79134917863890        1.16830426627887       -0.85032086309646
N            9.47374212781827        1.31008261065149       -0.80665954699469
C            8.68070451909317        0.26826041792951       -0.52533114065116
C            7.29974539651437        0.37160944910702       -0.46772044374736
C            4.27476036809072       -1.28828602916621        0.82633542448999
C            2.90314173203070       -1.15501521814643        0.87733627189432
C           -5.76191821170044       -3.80834433123041       -0.11446577774730
C           -6.91470563973345       -3.47063954705704       -0.79592621744521
H           -7.74916702027650       -2.50985071016939       -2.51964990268327
H           -5.54388018559738       -1.88573016314903       -3.44066601287643
H           -3.48573561336190       -2.49722847013596       -2.24581563192384
H           -4.38854483158049       -6.11282625424207       -0.69504579410301
H           -4.23916306825064       -8.23776916989644        0.53088196829275
H           -3.01116655896383       -8.35549240218702        2.67046112470559
H           -1.94026825386829       -6.32320010620987        3.57721113542246
H           -2.10359716012087       -4.19163965447110        2.36311610323900
H           -0.80976691621620       -4.49142203665073       -0.08942856460262
H            1.14872595894618       -3.00360577580858       -0.10251908897496
H           -3.46862054668771       -1.14415459077671        0.16177910594087
H           -3.21140144875459        1.56394834591027        0.19572884395508
H           -2.93660557760664        2.96594952006530       -2.17979261145594
H           -5.05075222593927        2.79669019642242       -3.41955169393359
H           -7.11276856261005        3.80455528237442       -2.50650693079134
H           -7.03982538191350        4.97531109065542       -0.33284648247825
H           -4.93249655401729        5.12789676905118        0.92062748405872
H           -3.15632843928322        6.64425791611554       -0.51240705981718
H           -2.63991457305432        8.65672617038189        0.80118452637989
H           -1.47087908931444        8.46108379129662        2.96788161099048
H           -0.82930792172309        6.23073810081158        3.81252904463692
H           -1.36016344018508        4.21443565234213        2.50985879534145
H            0.03386492907196        4.35671305169791        0.11578489904994
H            1.67700094805657        2.52818877124481        0.07370337951113
H            2.48311501170573        1.01015496543891       -1.68480917282887
H            4.92562330912592        0.78539196247829       -1.75695986067152
H            6.48868332540727       -2.82155237751891        0.30054027226138
H            8.93450263815995       -3.05610355470370        0.20885102456305
H           12.44533276377491       -0.19408449074094       -0.64340072104483
H           11.38084545458396        2.04169184004706       -1.07782244176074
H            6.86280281399373        1.34314907799627       -0.63823763996192
H            4.77134147807546       -1.92259614446476        1.54525370231113
H            2.33153298441495       -1.68138893351757        1.62757448066621
H           -5.82005850321476       -4.33911487929768        0.82453076262331
H           -7.87497708126465       -3.74460394694336       -0.38426229338862
