90
 energy: -139.575640487574 gnorm: 0.000069462260 xtb: 6.7.1 (edcfbbe)
C           -6.48732004697339       -2.57147935722798        2.56252559950190
C           -6.61757505766031       -3.33993419077695        1.41733183297010
C           -5.50110767710590       -3.72752022742375        0.70275229027513
C           -4.22643921857750       -3.35761569052960        1.13281393740542
N           -3.09247938214659       -3.74951419833845        0.41551548302890
C           -3.04416973312088       -4.99896533936785       -0.20807306996893
C           -2.39256723624412       -5.15310951140328       -1.43230046319878
C           -2.33568453722056       -6.39145222628923       -2.04086133231386
C           -2.93097602985282       -7.49332788639666       -1.44895717191817
C           -3.58206485587064       -7.34598979651964       -0.23499098763616
C           -3.63671925500796       -6.11378192845572        0.38606108862450
C           -1.99411206134921       -2.88141296198791        0.31718019244451
C           -0.69324009561165       -3.40005460763981        0.39893904040388
C            0.41856499221732       -2.59141651062247        0.29483092456998
C            0.22368890092764       -1.22959101487939        0.11077626164041
C           -1.08129565987711       -0.68852386021476        0.06863782700997
C           -2.19021803879665       -1.51525473660037        0.15672870560988
C           -0.92915844335022        0.73317711227620       -0.06672674361704
C           -1.83846257861774        1.77463022855314       -0.16445290439315
C           -1.35767329243992        3.06918519425735       -0.31784256956853
N           -2.24758809075016        4.14909804312558       -0.42379478788483
C           -1.94636042077839        5.35830180431436        0.20845603555129
C           -2.28497751889500        6.57450895153070       -0.38570841991474
C           -1.98327202428918        7.76570150157267        0.24438701127859
C           -1.33296492481015        7.76899173421740        1.46768407869935
C           -0.98835003938297        6.56484288677537        2.05936426436194
C           -1.29347239983046        5.36803795099011        1.44154470311321
C           -3.43214696844481        4.00580350677017       -1.15186097499811
C           -3.46152262872975        3.22911615954036       -2.31047697303556
C           -4.63528865465804        3.08592929308494       -3.02388410419811
C           -5.79481129743647        3.71670093579186       -2.60360063488255
C           -5.77141317496766        4.49045467835049       -1.45480629479149
C           -4.60484378439667        4.63266154217120       -0.72943730972156
C            0.02403901640713        3.30268116897008       -0.38369625920769
C            0.93978200134141        2.27812700045390       -0.27148152595991
C            0.46082645205725        0.98754370697911       -0.09416451270412
N            1.14839137922728       -0.20702158510622        0.01228866082277
C            2.53787908869166       -0.35598718974586        0.01143773380756
C            3.14377697949962       -1.30575716543033       -0.80818749510433
C            4.51506479315448       -1.45561702595581       -0.80168387182651
C            5.31950882573471       -0.65255410429704        0.00547149368005
C            6.78018231151934       -0.80190205331438       -0.00075878948010
C            7.35629853388896       -2.09356204687079       -0.05820239576107
C            8.70892864871814       -2.27134274001661       -0.06568604021756
C            9.56607068406649       -1.15319163801296       -0.02121393253947
N           10.90395986938663       -1.32400277744090       -0.03259316652725
C           11.64229996572755       -0.24770052058329        0.00901389849610
C           11.08121709089678        1.04547505099511        0.06514558058496
N            9.79161412376117        1.24461997903800        0.08006560969556
C            8.99849720178121        0.15105201892604        0.03749336952882
C            7.60119659288349        0.30128566973454        0.04871224462752
C            4.70552855784147        0.30087839954712        0.81658699767633
C            3.33379731500712        0.44387365668373        0.82892546869989
C           -4.10150734079144       -2.58521543848555        2.28794703835842
C           -5.22469045508971       -2.19498068010159        2.99030672707970
H           -7.36256887373873       -2.26790283839238        3.11656082124706
H           -7.59807319682056       -3.63319636477495        1.07157560382483
H           -5.60789474765036       -4.31679774607527       -0.19627489991699
H           -1.93612749615123       -4.29374174622690       -1.90146929082770
H           -1.82974848219513       -6.49501342727124       -2.98976985417357
H           -2.88757902358754       -8.45898817843794       -1.92936184257571
H           -4.04391589827012       -8.20042435010532        0.23782969751723
H           -4.13494628539956       -6.00553914627115        1.33839795491658
H           -0.56778810925519       -4.46158159334773        0.55228955387765
H            1.40912579275460       -3.01128006260149        0.37946890299600
H           -3.18793084401946       -1.10634200671097        0.10935178115585
H           -2.90031565995818        1.58458942988318       -0.12907601171650
H           -2.78172966004105        6.57621288279984       -1.34494985084678
H           -2.25014015859646        8.69959860258677       -0.22840395889528
H           -1.09634656921024        8.70238588442326        1.95547648688187
H           -0.48527624474941        6.55680519801353        3.01536205514460
H           -1.03260183774281        4.43043925132562        1.91039469307858
H           -2.55714533828617        2.74346025259473       -2.64685119080611
H           -4.64213557685981        2.48365409071843       -3.92065630124439
H           -6.70930446300914        3.60561362799039       -3.16622565959598
H           -6.67179898933146        4.98097714748178       -1.11476450019590
H           -4.59366168389167        5.22752374632889        0.17218032887348
H            0.37166837514661        4.31436921877797       -0.53098636613269
H            1.99724068339961        2.48059344490858       -0.34435334114001
H            2.53380619872975       -1.90973045007341       -1.46290813277247
H            4.97190021443647       -2.18104236113895       -1.45850727050762
H            6.70094614453016       -2.95208656541934       -0.07421427677485
H            9.15380811994152       -3.25362510264814       -0.10246659404100
H           12.71441147211226       -0.39309146688034       -0.00103505951453
H           11.70900198901919        1.92626768087567        0.09917702314972
H            7.20020024296251        1.30273416401593        0.07354472498314
H            5.31098117895161        0.91406474784373        1.46715573647369
H            2.86754544617011        1.16290074522150        1.48542973744797
H           -3.11815780549946       -2.29765879246455        2.63033537322320
H           -5.11208831554765       -1.59904708158255        3.88425955870569
