90
 energy: -139.575807294412 gnorm: 0.000054045356 xtb: 6.7.1 (edcfbbe)
C           -6.82634299391863       -2.91542155434512       -1.89027900491932
C           -5.60016216703935       -2.55954092216643       -2.42764978611295
C           -4.42862621133933       -2.86583074936067       -1.76384994387260
C           -4.46678747672610       -3.53016543386049       -0.53748663309754
N           -3.28374012687611       -3.83324855939722        0.14309314269480
C           -3.17688189965009       -5.01435774667277        0.88275780505171
C           -3.76799463414545       -6.19277478532406        0.42593837299228
C           -3.65858088791548       -7.35721666368830        1.16016658003005
C           -2.95365828635662       -7.37250942888054        2.35273827097627
C           -2.35962361503966       -6.20699150383200        2.80834194531373
C           -2.47067959583706       -5.03525790788065        2.08583790402367
C           -2.20578956986157       -2.93650368698338        0.09796933392712
C           -0.89385317004334       -3.42772226858587        0.02403643032297
C            0.19560163353445       -2.58373037144423       -0.02969018286493
C           -0.03388503819570       -1.21504207890863       -0.03819854910056
C           -1.34960991914939       -0.70718336399530        0.05449685216247
C           -2.43398584932619       -1.56615307032105        0.12916119450299
C           -1.23512273780727        0.72403992437508        0.06671753600709
C           -2.17156905475613        1.74377884615715        0.12342721451212
C           -1.73039242980819        3.06025507133461        0.06934890627203
N           -2.65144654743291        4.11790769741622        0.10827897582421
C           -2.34375623036076        5.28095972398324        0.81919881830982
C           -2.75330346385846        6.52932190953859        0.34937512795588
C           -2.44414570541234        7.67522605146846        1.05528453743488
C           -1.71634766717451        7.60139657722888        2.23180548410966
C           -1.30226982379264        6.36535316490060        2.70037828231972
C           -1.61415445888299        5.21274973576552        2.00656188351840
C           -3.87828897908177        3.99487410768079       -0.55112179716544
C           -3.96435077318819        3.31419761866246       -1.76603535311422
C           -5.18013041845724        3.18463391819385       -2.40794303603721
C           -6.32664282598739        3.73626703538332       -1.86002618714107
C           -6.24671128777571        4.41742493139265       -0.65651159815259
C           -5.03727151915317        4.54374374603104       -0.00167155576368
C           -0.35978417933955        3.33705666752718       -0.04525919541526
C            0.58386420981385        2.33223836336715       -0.08193088049191
C            0.14489869803085        1.01742033503424       -0.01088932688034
N            0.86238326378216       -0.16282218318866       -0.07293845220426
C            2.25338713796437       -0.27294134911030       -0.14713543939013
C            2.84596609327057       -1.11216514071511       -1.08809988198745
C            4.21922326315047       -1.23085043545691       -1.14591327989739
C            5.03821146604743       -0.50463873588878       -0.28254228474277
C            6.49991415733267       -0.62767894515794       -0.34714188746067
C            7.09025755070066       -1.89571864566594       -0.56490193525222
C            8.44430863821720       -2.05150622823348       -0.62395980895232
C            9.28875963288172       -0.93329296550772       -0.47105733451439
N           10.62801831921301       -1.08257549069441       -0.52867279080769
C           11.35422350473433       -0.00754212037902       -0.37958073567112
C           10.77905027937393        1.26288113392899       -0.16640142193016
N            9.48776479722078        1.44058895993646       -0.10308062855973
C            8.70698667563794        0.34753409744046       -0.25272547049809
C            7.30861928952550        0.47502055441462       -0.19309902813216
C            4.43711880481133        0.34326424430723        0.64699991669460
C            3.06453204193593        0.45370330913993        0.72229574146883
C           -5.70501246616441       -3.88063402767629        0.00152210197685
C           -6.87059711296091       -3.57850188151714       -0.67487562841733
H           -7.73980402591137       -2.67728331236008       -2.41374394029606
H           -5.55444862512373       -2.04585795685426       -3.37683926949738
H           -3.47436354082377       -2.59447281472487       -2.19110819858273
H           -4.30915444880532       -6.18687007536901       -0.50897464596020
H           -4.12009160589146       -8.26240026586887        0.79334037450458
H           -2.86785327771707       -8.28549380932897        2.92218319108464
H           -1.81200381874086       -6.20755652426280        3.73954725750458
H           -2.01472139450971       -4.12566879377041        2.44877627212695
H           -0.73992765733409       -4.49643329047270        0.01136669974586
H            1.19616810259676       -2.98666371136695       -0.06307223643913
H           -3.43851032903573       -1.17960247581479        0.20907202032562
H           -3.22493565533046        1.52044053023917        0.19637680854428
H           -3.31100614274691        6.59195184164934       -0.57364151082372
H           -2.76643682577405        8.63490821707718        0.67839628318924
H           -1.47371181128580        8.49982630071769        2.77871233191989
H           -0.73870305523864        6.29679949692139        3.61948662410234
H           -1.29881649602838        4.24946358220471        2.38017813177105
H           -3.07114285096039        2.89066101022905       -2.20152235213263
H           -5.23091664363797        2.65529821467824       -3.34822836818207
H           -7.27463707067478        3.63557387560309       -2.36630936719316
H           -7.13582353746257        4.84631497876644       -0.21779134956608
H           -4.98180038524323        5.06473119665889        0.94300973204539
H           -0.04319049620591        4.36723894099296       -0.11249204232306
H            1.63093380073764        2.57044226434481       -0.18938467108210
H            2.22354222781522       -1.65426204086515       -1.78394009481487
H            4.66447918024600       -1.86976049488894       -1.89420320547320
H            6.44532771359786       -2.75666210209449       -0.66296322433717
H            8.89992951485286       -3.01662236253766       -0.78244018973740
H           12.42754763183875       -0.13575442113562       -0.42667963623074
H           11.39683127280867        2.14311863895397       -0.04552096006696
H            6.89659990643259        1.46132427947448       -0.04562102746449
H            5.05462496663715        0.89590011292461        1.33914776858278
H            2.60971679040255        1.08778026306517        1.46833392633193
H           -5.74490690355832       -4.38655352506997        0.95513649846299
H           -7.82182896965577       -3.85488958192441       -0.24393746772227
