119
 energy: -190.404757145156 gnorm: 0.000070163778 xtb: 6.7.1 (edcfbbe)
C            0.06750242222597       -7.92381968530624       -0.23856299227597
C           -1.14001346016253       -7.24360536457315       -0.18530975511368
C           -1.15566643588494       -5.86357465264112       -0.12583902965750
C            0.04352554129083       -5.15071867493673       -0.11806503588555
C            0.02979141090456       -3.69089061943975       -0.06406815450321
N           -1.15489059541628       -3.07764147547023       -0.06037339685132
C           -1.11744590301808       -1.75119850064142       -0.03380408872555
C           -2.36426266539772       -0.98359165239667       -0.02198740201534
C           -3.59625240011299       -1.60016712902536        0.15938066299280
C           -4.74799347041137       -0.82243446952255        0.22858300803542
N           -5.98860984006350       -1.43314070702899        0.44391900611831
C           -7.14387124000192       -1.20654377282273       -0.28183842636071
C           -7.34044043311846       -0.41964708707781       -1.40682307428610
C           -8.60511630549335       -0.38774605358923       -1.96307271416037
C           -9.65354377098191       -1.13036402181278       -1.42428981345429
C           -9.45666715044301       -1.94151057938181       -0.32406740919048
C           -8.19327263617228       -1.98832442241862        0.25162408628407
C           -7.63625492970377       -2.72094479845054        1.35543454870718
C           -8.16874638026535       -3.62698889068790        2.26378348456772
C           -7.34326397046314       -4.14779699542795        3.24053760870305
C           -6.00680432335750       -3.76381566687533        3.32708957105043
C           -5.45513100271993       -2.86272950755548        2.43549054396511
C           -6.27329237414652       -2.35461673019888        1.43655037002263
C           -4.66582541915670        0.56513207442191        0.12123565948858
C           -3.43265812452390        1.17931841183801       -0.08664424222818
N           -3.31414754024672        2.56926938098249       -0.16679934056493
C           -4.09346132351383        3.42693545125354       -0.92397715464232
C           -5.13810406608659        3.14488590862138       -1.79146203817658
C           -5.73628056981245        4.20038692338839       -2.45410664808010
C           -5.30272675878988        5.51135317826610       -2.27205598340360
C           -4.24451388471942        5.79677516329355       -1.43179197639545
C           -3.62997223927284        4.75149800942853       -0.75458337546219
C           -2.51705252603969        4.68482216760986        0.15207192577816
C           -1.68009614656433        5.64662593123044        0.70229591641472
C           -0.69086253573265        5.24266911251573        1.57569529637567
C           -0.54584498711804        3.90098531664486        1.91708773928330
C           -1.37276139107847        2.92758147494843        1.38878495239659
C           -2.34919351964639        3.32249166730942        0.48528847487287
C           -2.28752360541870        0.39673179417423       -0.17215581977204
N            0.00385640331134       -1.04014739861641        0.00294905694022
C            1.13894944052976       -1.72984231679455        0.01034587320261
C            2.37192240409868       -0.94057114780151        0.02812716398884
C            2.26883333558546        0.44060983524507        0.15469091591470
C            3.40303287027298        1.24074922254786        0.08625945832919
N            3.26079769251839        2.62986950266650        0.13559062343756
C            4.01348335813001        3.51532495635652        0.88813313616746
C            5.04292123694387        3.26798124499573        1.78398219941700
C            5.61401671375849        4.34684643195526        2.43279487955830
C            5.16841747104025        5.64740693344899        2.20991838692326
C            4.12402433491217        5.89863218168567        1.34197235823400
C            3.53699025508846        4.82934589496504        0.67802157145011
C            2.44316020626555        4.72687073850330       -0.24813873676256
C            1.60426265359713        5.66500234957792       -0.83495791179589
C            0.63627715367374        5.22860488851140       -1.71648799348103
C            0.51633450875080        3.87802861391136       -2.03131995206718
C            1.34673056870403        2.92792897284029       -1.46709211279531
C            2.29978201224372        3.35520591017643       -0.55336093092347
C            4.65151692380133        0.64324091868365       -0.07490744520884
C            4.75918252080440       -0.74434201713643       -0.15488424659570
N            6.01500822037961       -1.33876050517381       -0.32180629060313
C            7.14375491651599       -1.08428806064087        0.43565650101670
C            7.29545070828968       -0.27366903755655        1.55068084560425
C            8.54129836078141       -0.21600457898769        2.14601746237156
C            9.61478608134744       -0.95612958638704        1.65530673038272
C            9.46230691277196       -1.79033515226930        0.56530695219903
C            8.21852827643887       -1.86340698998080       -0.04903224202491
C            7.70545707947555       -2.62387481631049       -1.15532912315814
C            8.27662070208460       -3.54114379597533       -2.02825780111097
C            7.48842544906235       -4.09014763669070       -3.02027413583260
C            6.15130008028695       -3.72329389742555       -3.15692670233627
C            5.56143217603748       -2.81184342547483       -2.30108710017410
C            6.34175966222785       -2.27548341631402       -1.28675246015734
C            3.61849074549849       -1.53956714246417       -0.10745679779060
N            1.20188081601054       -3.05535780981427       -0.02811764705972
C            1.25491559083938       -5.84074080003336       -0.16941821263881
C            1.26303331429482       -7.22081515584223       -0.23057707790480
H            0.07679307859266       -9.00259404487327       -0.28639625021745
H           -2.07048441679593       -7.79149025697090       -0.19066656435642
H           -2.08553778679715       -5.31791303996578       -0.08605924743437
H           -3.64745809457338       -2.67345950284812        0.24283330572083
H           -6.52769782412720        0.13693920083403       -1.84705629475976
H           -8.78239871358085        0.22180939265595       -2.83700867323291
H          -10.62911083796042       -1.07709652689233       -1.88446851583647
H          -10.26373658032520       -2.53363721798181        0.08020080853816
H           -9.20829421209499       -3.91219692693272        2.20576774694807
H           -7.73676722943064       -4.85583592091589        3.95481153052034
H           -5.38724940370375       -4.17633552019868        4.11007850926182
H           -4.42214978209684       -2.56092788451067        2.52374288488562
H           -5.55707082260923        1.16308213191123        0.23476081798878
H           -5.46964261865134        2.13279633488634       -1.96004317514487
H           -6.55488482997191        4.00214142265313       -3.13030253592764
H           -5.79653888835551        6.31020804724517       -2.80529318869573
H           -3.89548244635182        6.81024380684764       -1.30381915951278
H           -1.80706332249763        6.68868227074879        0.45176920642360
H           -0.02406318663564        5.97178465403707        2.01042034667276
H            0.22623080779976        3.61362867891407        2.61611804428987
H           -1.26395081185172        1.89550604892885        1.68657139007779
H           -1.32877829833278        0.85080164110737       -0.35848114121939
H            1.29790894820813        0.88111689387130        0.30714606833936
H            5.38342284604747        2.26482015405394        1.98469933881539
H            6.42089852014722        4.17558326678757        3.13014061752194
H            5.64153471206380        6.46513233812633        2.73318573954286
H            3.76448744365858        6.90393602304123        1.18241126029867
H            1.71313096288942        6.71394609380082       -0.60554630798817
H           -0.03275874200315        5.93868589357790       -2.17853747711275
H           -0.23906601883337        3.56483632319920       -2.73750722401294
H            1.25786895543052        1.88863222161618       -1.74562774160152
H            5.53599376657282        1.25355859743166       -0.17459741932414
H            6.46287214615867        0.28162679347731        1.95387388774934
H            8.68356616647919        0.41215726215818        3.01316331867165
H           10.57457771082041       -0.88236429823417        2.14490792755338
H           10.28840379902882       -2.38043878298173        0.19826614164499
H            9.31677536820846       -3.81332172551668       -1.93150389804500
H            7.91216536536409       -4.80722152223896       -3.70772085020611
H            5.56171651037135       -4.15777779594069       -3.95109228859487
H            4.52852965282403       -2.52361096492097       -2.42764279948016
H            3.68881408185823       -2.61302602661584       -0.17157518069266
H            2.17543847348616       -5.27808706101026       -0.16222082482740
H            2.20280795876529       -7.75099345076057       -0.27191702831346
