  119
       -190.33056262
 C          0.0944140279       -7.9640194092       -0.2653937347
 C         -1.1167120352       -7.2894075729       -0.2424207938
 C         -1.1403993042       -5.9092743591       -0.1964267324
 C          0.0551197227       -5.1921433216       -0.1712061113
 C          0.0357533297       -3.7324571953       -0.1255786465
 N         -1.1497500229       -3.1215870958       -0.1445591780
 C         -1.1140964332       -1.7958833399       -0.1222256317
 C         -2.3550184385       -1.0188728689       -0.1209533143
 C         -3.5912414638       -1.6160519178        0.0888795004
 C         -4.7285029680       -0.8192221534        0.1714574905
 N         -5.9748706791       -1.4071646447        0.4147710023
 C         -7.1406040903       -1.1588457354       -0.2827371319
 C         -7.3499881297       -0.3655866397       -1.4008950714
 C         -8.6259682419       -0.3129744288       -1.9280476471
 C         -9.6737525830       -1.0398597976       -1.3675714959
 C         -9.4657902974       -1.8548636133       -0.2726901352
 C         -8.1914322552       -1.9225119922        0.2744644592
 C         -7.6227403133       -2.6638326503        1.3653407374
 C         -8.1499063841       -3.5587221456        2.2871337688
 C         -7.3113715143       -4.0913174411        3.2456734660
 C         -5.9673595935       -3.7293494410        3.3014083858
 C         -5.4204182986       -2.8400506505        2.3960842536
 C         -6.2524089958       -2.3207270871        1.4147167706
 C         -4.6278663232        0.5658217533        0.0564647856
 C         -3.3898766660        1.1584108315       -0.1790884200
 N         -3.2477731390        2.5465992611       -0.2510883211
 C         -4.0423262405        3.4277629416       -0.9591581748
 C         -5.1108935489        3.1753834950       -1.8064791759
 C         -5.7203464094        4.2524172647       -2.4216182930
 C         -5.2756367585        5.5554994428       -2.2132304599
 C         -4.1957844993        5.8120679518       -1.3918435388
 C         -3.5696270697        4.7454769920       -0.7614835075
 C         -2.4371614643        4.6476051295        0.1162507856
 C         -1.5894898839        5.5903838613        0.6818087823
 C         -0.5794565304        5.1567570909        1.5157093318
 C         -0.4224480155        3.8035100436        1.8006740226
 C         -1.2627755584        2.8487072685        1.2609838727
 C         -2.2640808088        3.2748267456        0.3998553498
 C         -2.2604449850        0.3581433656       -0.2888456078
 N          0.0053063267       -1.0845680465       -0.0666074100
 C          1.1407860336       -1.7715075029       -0.0327959159
 C          2.3658038050       -0.9715352510        0.0136252008
 C          2.2398776996        0.4054393135        0.1593771981
 C          3.3608788385        1.2229476569        0.1062290671
 N          3.1914896794        2.6090740522        0.1600972725
 C          3.9217422813        3.5052506715        0.9169964696
 C          4.9397291947        3.2730604720        1.8296664009
 C          5.4837446724        4.3602825619        2.4866385354
 C          5.0238333445        5.6540001718        2.2545388759
 C          3.9928397185        5.8900740383        1.3669395145
 C          3.4320118916        4.8126935899        0.6948262409
 C          2.3535449823        4.6922083678       -0.2456805805
 C          1.5106504620        5.6165996081       -0.8475571589
 C          0.5495601119        5.1618877748       -1.7267981716
 C          0.4405340170        3.8066369099       -2.0241878027
 C          1.2801017917        2.8705855296       -1.4512852032
 C          2.2279410420        3.3167998145       -0.5413025885
 C          4.6203088630        0.6485349621       -0.0483065197
 C          4.7495454117       -0.7361938756       -0.1386247911
 N          6.0169843007       -1.3100064576       -0.2893984825
 C          7.1280371888       -1.0430225556        0.4865588886
 C          7.2556544159       -0.2215054710        1.5965825476
 C          8.4892752570       -0.1542786219        2.2150494485
 C          9.5747607591       -0.8945380816        1.7526042112
 C          9.4470438441       -1.7374949329        0.6666423433
 C          8.2166429735       -1.8196127211        0.0284907366
 C          7.7296486418       -2.5901202952       -1.0814151517
 C          8.3228546665       -3.5092995568       -1.9367269048
 C          7.5569325900       -4.0690997724       -2.9394927307
 C          6.2210108727       -3.7102222912       -3.1043128722
 C          5.6094147900       -2.7970234706       -2.2666814118
 C          6.3669719744       -2.2502081021       -1.2408959700
 C          3.6216753066       -1.5501254822       -0.1162134329
 N          1.2061854478       -3.0957028578       -0.0689067977
 C          1.2704432227       -5.8754998782       -0.1933332754
 C          1.2860477898       -7.2555619094       -0.2411165210
 H          0.1096764042       -9.0434012302       -0.3026222508
 H         -2.0435068706       -7.8436691717       -0.2605930858
 H         -2.0734084545       -5.3677889729       -0.1796417903
 H         -3.6563426165       -2.6873656011        0.1853064163
 H         -6.5394381029        0.1795254975       -1.8590748994
 H         -8.8138096169        0.3011167895       -2.7964102769
 H        -10.6577953998       -0.9705389663       -1.8063669407
 H        -10.2731107380       -2.4336186312        0.1496986537
 H         -9.1952148027       -3.8258498798        2.2528612322
 H         -7.6998376724       -4.7913192784        3.9701433324
 H         -5.3386322132       -4.1502838593        4.0719892026
 H         -4.3818248973       -2.5539273628        2.4617614338
 H         -5.5066943643        1.1779766243        0.1884190715
 H         -5.4522254987        2.1703202594       -1.9969241705
 H         -6.5569253327        4.0784228275       -3.0821169526
 H         -5.7787669999        6.3710150844       -2.7107979014
 H         -3.8389038068        6.8199318824       -1.2429150633
 H         -1.7238130493        6.6405018163        0.4714977516
 H          0.0971094530        5.8702335139        1.9610324379
 H          0.3715468585        3.4938426892        2.4645187188
 H         -1.1463561164        1.8076666687        1.5200587990
 H         -1.3009320754        0.7963619035       -0.5051853975
 H          1.2625394017        0.8294547826        0.3156043079
 H          5.2902436997        2.2749717397        2.0384135090
 H          6.2795677507        4.2017513631        3.1992535048
 H          5.4747250641        6.4780369912        2.7869276020
 H          3.6224112027        6.8901596584        1.2001105669
 H          1.6087481731        6.6687370189       -0.6276632894
 H         -0.1255165794        5.8605089678       -2.1974118400
 H         -0.3145099023        3.4800269729       -2.7242926245
 H          1.2019708885        1.8283422640       -1.7198603448
 H          5.4957377269        1.2736974005       -0.1334899029
 H          6.4144036525        0.3340783992        1.9805179513
 H          8.6128872060        0.4819387028        3.0790092476
 H         10.5235911799       -0.8137769723        2.2614056880
 H         10.2823819525       -2.3269648051        0.3203611919
 H          9.3624786596       -3.7743610124       -1.8176642423
 H          7.9971879989       -4.7886024322       -3.6134151979
 H          5.6504510638       -4.1531683161       -3.9071245532
 H          4.5786530847       -2.5143154439       -2.4166051704
 H          3.7092805103       -2.6213420757       -0.1931214856
 H          2.1878184380       -5.3080000848       -0.1738880656
 H          2.2283046440       -7.7830615236       -0.2605294975
