119
 energy: -190.330208660890 gnorm: 0.000044467068 xtb: 6.7.1 (edcfbbe)
C            0.05872198024318       -7.96210479396881       -0.09378116503896
C           -1.14473435987630       -7.27871567827957       -0.01030515643707
C           -1.15733435286556       -5.89712726308807        0.01190948466869
C            0.03810286881100       -5.18419602659042       -0.04843071122158
C            0.02662040538777       -3.71566626968385       -0.02923295852063
N           -1.15300409101563       -3.11352802373008        0.00330706560187
C           -1.12937014750428       -1.74755693967629       -0.01220064226664
C           -2.35052361873937       -0.99101443459181       -0.00234070380095
C           -3.60481007253691       -1.59457288263196        0.16100746193758
C           -4.74509600300412       -0.81142024137559        0.23738856430344
N           -5.99316232474853       -1.42091808201575        0.44433389036533
C           -7.13597741412558       -1.20378719289274       -0.29691463037292
C           -7.31752893611347       -0.42637353004484       -1.43238809763849
C           -8.57598359609708       -0.39663276714978       -2.00299100204448
C           -9.63186178905548       -1.13101609286812       -1.46784966827440
C           -9.45047606760658       -1.93209502429549       -0.35505789639485
C           -8.19527433857897       -1.97622575614520        0.23482609152234
C           -7.65030917032080       -2.69510717411134        1.35546008858749
C           -8.18818894725344       -3.59040885301322        2.26882577294399
C           -7.36752627164915       -4.09957328154103        3.25872509766950
C           -6.03164074921723       -3.71520058681953        3.35113359358525
C           -5.47407264561359       -2.82266018666874        2.45449554786320
C           -6.28720915450182       -2.32529084680803        1.44448614063072
C           -4.66959393035125        0.58020037938820        0.14307803278286
C           -3.42374516730038        1.18188094229352       -0.05396217814284
N           -3.30291152347483        2.57696471895827       -0.13707742334458
C           -4.05573038998754        3.42535114325946       -0.92425460512019
C           -5.08329723019602        3.13530643763193       -1.81139358682602
C           -5.65986182773156        4.18396148676715       -2.50337481122362
C           -5.22252656705818        5.49495076220375       -2.33065341232658
C           -4.18205057983249        5.78890788727765       -1.46832127169041
C           -3.59005826584780        4.75182683242568       -0.76208462947434
C           -2.49848727533427        4.68983732767917        0.17232145799489
C           -1.66083700986408        5.64804833939141        0.72347522569595
C           -0.69129265763103        5.24287210432380        1.62187842604571
C           -0.56789359086887        3.90472590314764        1.98507224365519
C           -1.39750509236268        2.93369947996101        1.45602088631761
C           -2.35290264395334        3.32891353980004        0.52840792133413
C           -2.28421082271922        0.40423189509995       -0.13840033986955
N            0.00454551172415       -1.06537579618739       -0.01251116802461
C            1.15043181220197       -1.72851730271979       -0.01581873396828
C            2.35907888641413       -0.95346207756960       -0.01211906748992
C            2.27012599374328        0.44183492564840        0.11332227660939
C            3.39917759590430        1.23588328761519        0.04177717392227
N            3.25658551143319        2.62977339818149        0.10830119988042
C            3.98921254209915        3.49826934051639        0.89286108848627
C            5.00956101565327        3.23380465886996        1.79625822388758
C            5.56450798172993        4.29917420761433        2.48037414188800
C            5.11304680531751        5.60202382003796        2.28424795191368
C            4.07899180504487        5.87062665657251        1.40610355627347
C            3.50857667317733        4.81636596421553        0.70762980784936
C            2.42834502983023        4.72787875487524       -0.23767178762639
C            1.58394122891281        5.66806302605008       -0.80913773847502
C            0.62883434052868        5.23906639571562       -1.71194495396802
C            0.52769553470911        3.89517601826476       -2.06034052296821
C            1.36496767726540        2.94193529179396       -1.51126773039835
C            2.30467208335500        3.36072913444673       -0.57791420707041
C            4.65740632580428        0.65083945691595       -0.12585703065031
C            4.75502226381074       -0.74028054835807       -0.20643418897693
N            6.01654326668597       -1.33283188361024       -0.37887934758663
C            7.13640776600927       -1.09588101776417        0.39064436352712
C            7.27790845426747       -0.30810945863441        1.52466616310246
C            8.52010549225406       -0.25871100072653        2.12855748475894
C            9.59887294195879       -0.98370173176921        1.62732604586452
C            9.45716136348692       -1.79498856160477        0.51613089303560
C            8.21891529984945       -1.85892581956329       -0.10683340331165
C            7.71270695898298       -2.59307751849602       -1.23574684842684
C            8.28518506640307       -3.48890165049416       -2.12729106519042
C            7.49683362936808       -4.01606488481159       -3.13394495928029
C            6.15913441594225       -3.64927143154203       -3.26422362861305
C            5.56734291990675       -2.75671725644879       -2.38983634992661
C            6.34792828510410       -2.24108791638063       -1.36343947437690
C            3.62522625696329       -1.53962459624862       -0.14797396558890
N            1.19557100811331       -3.09397944261263       -0.04804425111543
C            1.24405752302695       -5.87697920568925       -0.13063488592810
C            1.25190723433010       -7.25858858281457       -0.15413380315714
H            0.06667443745683       -9.04204328527776       -0.11204854978531
H           -2.07524302319042       -7.82543579600101        0.03712149407214
H           -2.08512641274947       -5.34897188840088        0.07528510077514
H           -3.66704422903384       -2.66926709473538        0.22055559201776
H           -6.49661244083563        0.12329485209424       -1.86546758825809
H           -8.74247698847479        0.20446423501505       -2.88463577189589
H          -10.60220742126941       -1.08046970370124       -1.93892596183106
H          -10.26480460601119       -2.51639804823968        0.04561820523667
H           -9.22625329421244       -3.87964666115042        2.20681884551826
H           -7.76636496465236       -4.79990738906068        3.97743688899191
H           -5.41755913090573       -4.12031982408774        4.14200668341996
H           -4.44147197323197       -2.51975586931502        2.54122172250281
H           -5.55730981888757        1.18059538015709        0.26193196545966
H           -5.41575029056734        2.12191532637690       -1.96828231945350
H           -6.46396057155583        3.98063283768872       -3.19502022483022
H           -5.69857563288391        6.28847888642287       -2.88719513417578
H           -3.83192370933889        6.80272827379824       -1.34770043677780
H           -1.76852679895991        6.68801137624491        0.45658341770625
H           -0.02506121887015        5.97077665358922        2.05907247526177
H            0.18849536818508        3.61784840915512        2.70098636524231
H           -1.30818041454735        1.90314113432527        1.76480190901640
H           -1.32437903411346        0.85804801920617       -0.32237868180341
H            1.30060758311280        0.88224600107589        0.27798042064176
H            5.35321480207087        2.22724934195492        1.97152830435952
H            6.36273885960574        4.11557801673317        3.18422665053331
H            5.57276900298128        6.40911072928525        2.83497198132368
H            3.71732254478892        6.87804783585904        1.26732186561869
H            1.67519574637035        6.71256264613460       -0.55409552740516
H           -0.04315884066564        5.95242662108212       -2.16415928313332
H           -0.21743382798722        3.58945931372905       -2.78027694313750
H            1.29296576417840        1.90695948759285       -1.80947692331956
H            5.53861982946760        1.26282421203670       -0.23316478843652
H            6.43887734071668        0.23423713020112        1.93146164646323
H            8.65539112245559        0.35057676963444        3.00992443146091
H           10.55557381063269       -0.91782520971229        2.12372962225531
H           10.28892546307410       -2.37217914903510        0.14186526295800
H            9.32464276673105       -3.76495680466434       -2.03566955908508
H            7.92269747336231       -4.71713632727915       -3.83623963398671
H            5.57089100666154       -4.06859228547378       -4.06723485545826
H            4.53358622458415       -2.46752101364787       -2.50519167238336
H            3.70412817279176       -2.61368995571912       -0.19835284376329
H            2.16369087753370       -5.31350020444918       -0.17627453256952
H            2.19039209162487       -7.78958850386644       -0.21947499137484
