  79
       -124.18865780
 C         -5.8317574569       -1.3106940493       -4.1797195281
 C         -5.8908708905        0.0461442207       -3.8980322748
 C         -5.8964519843        0.5006251434       -2.5862091566
 C         -5.8425409163       -0.4284514646       -1.5706509932
 C         -5.7838509395       -1.8017893160       -1.8489828820
 C         -5.7775800618       -2.2477441880       -3.1604455037
 C         -5.7427415622       -2.5254240542       -0.5884226899
 C         -5.6845180020       -3.8820478000       -0.3150464062
 C         -5.6618406047       -4.2914246649        1.0085291861
 C         -5.6964364216       -3.3660850816        2.0411489556
 C         -5.7539167522       -2.0046965001        1.7748376172
 C         -5.7767501772       -1.5939651044        0.4600537761
 C         -5.8386183575       -0.1874240897       -0.0805364990
 C         -7.0376450815        0.5965194322        0.3949530177
 C         -8.3690151542        0.2787054154        0.2698644728
 C         -9.3136738239        1.1634236420        0.7796751017
 C         -8.9199456974        2.3427925800        1.3999527089
 C         -7.5827101252        2.6686369775        1.5296835449
 C         -6.6279163874        1.7897260237        1.0250773029
 C         -5.1930335406        1.8495048039        1.0134097692
 C         -4.2990324683        2.8065225293        1.5034588905
 C         -2.9527134510        2.6004530246        1.3561902100
 C         -2.4472606455        1.4390820252        0.7207133043
 C         -1.0537349331        1.2430776577        0.5891446312
 N         -0.1696404062        2.1466250428        1.0849786721
 C          1.1008871560        1.9699269162        0.9812008599
 C          1.6995611003        0.8328778247        0.3602324037
 C          3.1028395289        0.6133587185        0.2604593816
 C          4.0325452656        1.6688277463        0.4053312443
 C          5.3831368493        1.4540347599        0.3178370580
 C          5.8865273753        0.1694819341        0.0794750832
 N          7.2613148307       -0.0525657199       -0.0061562767
 C          8.1539431897        0.6798500418       -0.7634869975
 C          7.9179533474        1.7400781223       -1.6281690013
 C          9.0007457212        2.2818625262       -2.2950514662
 C         10.2880972000        1.7800272269       -2.1200076494
 C         10.5253194385        0.7062179874       -1.2821790146
 C          9.4545531360        0.1466459604       -0.6011864994
 C          9.3300979121       -0.9622312456        0.3054734506
 C         10.2406236669       -1.8532647227        0.8536729222
 C          9.7791331605       -2.8110016095        1.7374066741
 C          8.4327888539       -2.8727249035        2.0887019542
 C          7.5070822272       -1.9952164775        1.5562180347
 C          7.9594563691       -1.0500105180        0.6453079590
 C          4.9837662097       -0.8903253024       -0.0706337360
 C          3.6336948773       -0.6745217645        0.0170336324
 C          0.7048443645       -0.0588055327       -0.1425926789
 N         -0.5612394559        0.1425938382       -0.0339154792
 C         -3.3563309728        0.4728875746        0.2238874728
 C         -4.6937078558        0.6885918223        0.3738611897
 H         -5.8285371055       -1.6404236051       -5.2087140184
 H         -5.9334798526        0.7579254819       -4.7094637579
 H         -5.9419741745        1.5572525627       -2.3655627815
 H         -5.7319651682       -3.3032246537       -3.3851748261
 H         -5.6579627086       -4.6064784656       -1.1157133357
 H         -5.6171525708       -5.3458151751        1.2405409111
 H         -5.6785565167       -3.7092235589        3.0652906044
 H         -5.7802684134       -1.2834540465        2.5787319380
 H         -8.6750969371       -0.6379525160       -0.2135377702
 H        -10.3647375566        0.9316098493        0.6913333478
 H         -9.6732150626        3.0145504889        1.7861327075
 H         -7.2824314837        3.5862556223        2.0133541440
 H         -4.6700221120        3.6940341851        1.9950606003
 H         -2.2378595192        3.3175691351        1.7300651618
 H          1.7202785839        2.7191685519        1.4582495604
 H          3.6735961727        2.6698833107        0.5894212782
 H          6.0734334477        2.2723008707        0.4611462970
 H          6.9211195928        2.1212795141       -1.7884717762
 H          8.8436631860        3.1093713443       -2.9706805323
 H         11.1084130577        2.2315816173       -2.6574860457
 H         11.5203735350        0.3054706915       -1.1619409520
 H         11.2873916614       -1.7933979469        0.5973191560
 H         10.4710813091       -3.5162104498        2.1728718430
 H          8.1052936656       -3.6192876254        2.7967492201
 H          6.4701670018       -2.0363577294        1.8525876387
 H          5.3630024754       -1.8788996551       -0.2840068595
 H          2.9618115437       -1.5108511736       -0.1008230724
 H          0.9949252697       -0.9353147082       -0.7084263654
 H         -2.9698649860       -0.4081925034       -0.2653160043
