79
 energy: -124.192242242437 gnorm: 0.000073410530 xtb: 6.7.1 (edcfbbe)
C           -5.84166160707980       -1.31755082336899       -4.19000243631832
C           -5.88146298213075        0.04097992600419       -3.91365613087125
C           -5.88286001589603        0.50057606899681       -2.60356679032732
C           -5.84364728185638       -0.42495588869748       -1.58408451080819
C           -5.80272322987102       -1.80005897411705       -1.85728508608229
C           -5.80162008301148       -2.25118408053903       -3.16691277996209
C           -5.76947753275024       -2.51963825804870       -0.59404723793192
C           -5.72468988112546       -3.87563426994772       -0.31500134792012
C           -5.70212530449171       -4.27962773185718        1.01026100073540
C           -5.72354790255543       -3.34974160089669        2.03909024707759
C           -5.76855530472773       -1.98903854514490        1.76711200306580
C           -5.79140694175371       -1.58393829531124        0.45065002148579
C           -5.84188668951628       -0.17856917847060       -0.09543557036333
C           -7.04059370333425        0.60698330291983        0.37971945443903
C           -8.37292167072204        0.29800008378537        0.23959443150408
C           -9.31633672948312        1.17803157094503        0.75868882860767
C           -8.92108602015429        2.34269149469142        1.40386035672411
C           -7.58243728466221        2.65926812853120        1.54777233564888
C           -6.63006801214952        1.78591387355620        1.03254682654711
C           -5.19244895868365        1.83996732078675        1.02828174729293
C           -4.29798124465477        2.78382059336717        1.53838207532167
C           -2.95099568034727        2.57549728072387        1.39205661776798
C           -2.44811548132911        1.42534314328092        0.73681366586604
C           -1.05584596352402        1.22729272562909        0.60630268765002
N           -0.16226191007487        2.11189913640818        1.12154166265456
C            1.10716990302910        1.93738915480429        1.01937689780294
C            1.70694487002537        0.81470768657643        0.37395358295032
C            3.11249114022142        0.59725580279796        0.26908331300342
C            4.03770978975309        1.65303713680454        0.42052083228362
C            5.38960298744694        1.44167780499105        0.32912268576486
C            5.89398692871017        0.16147542586551        0.07727048788918
N            7.27038017290442       -0.05571868350222       -0.01342716377755
C            8.15780639961305        0.68416146404993       -0.76924810592775
C            7.91444096086679        1.74462725476825       -1.63147148919073
C            8.99355117128180        2.29614413437047       -2.29611468495859
C           10.28451981349139        1.80360886256448       -2.12118548074497
C           10.52918087490355        0.73009848045361       -1.28551709451372
C            9.46201740997412        0.16057142604309       -0.60672130592548
C            9.34534453630166       -0.94971965052933        0.29901563679775
C           10.26228823059714       -1.83440558201188        0.84725102384414
C            9.80742170315767       -2.79619191039699        1.72968282606238
C            8.46115049882829       -2.86912873963734        2.07901333042586
C            7.52918079597566       -1.99837996926864        1.54647306742369
C            7.97536322541650       -1.04829721012441        0.63787614464969
C            4.99458063455539       -0.89826544767812       -0.08081072456237
C            3.64316432588772       -0.68613064591199        0.01379562292941
C            0.71006475952467       -0.06346198779795       -0.14770268519358
N           -0.55387209314972        0.14075862000667       -0.03574493944067
C           -3.35850340479508        0.47206979504253        0.22007458104824
C           -4.69625803057659        0.68979234055984        0.37049077111037
H           -5.84228409287531       -1.65138732661565       -5.21766969022891
H           -5.91235457295580        0.75008281429599       -4.72796923573153
H           -5.91415053137880        1.55857921723887       -2.38723418525175
H           -5.77096802352831       -3.30808597564406       -3.38741428466468
H           -5.70781338969910       -4.60380733810729       -1.11254844538962
H           -5.66746125333213       -5.33343424928188        1.24661526375314
H           -5.70520809054669       -3.68866061376370        3.06461659731308
H           -5.78513899048765       -1.26389192235026        2.56776054805644
H           -8.67998379273613       -0.60808002358629       -0.26277177910902
H          -10.36795841531353        0.95331311653617        0.65883160934596
H           -9.67314588237667        3.01051226573577        1.79906433284299
H           -7.28088594139973        3.56604699282517        2.05078394603726
H           -4.66687125058607        3.66347923961224        2.04542431973688
H           -2.23558892554036        3.28352179958818        1.78223731959209
H            1.72642284142923        2.67392965102307        1.51536835001185
H            3.67646959424761        2.65191445903237        0.61242467210860
H            6.07835286852572        2.26044283368978        0.47660523295880
H            6.91487545261648        2.11921585003991       -1.79071192593745
H            8.83086054027938        3.12420596499169       -2.96982956130674
H           11.10176422151380        2.26303089951404       -2.65668400184236
H           11.52717154343940        0.33683946385903       -1.16490553632644
H           11.30880321347122       -1.76634232596456        0.59160679755040
H           10.50443301190460       -3.49611664334581        2.16556797383420
H            8.13857628405489       -3.61935458633129        2.78551976415343
H            6.49192572142582       -2.04891322563746        1.84035074865890
H            5.37526147930878       -1.88443278607120       -0.30235766628738
H            2.97232983779316       -1.52294302031470       -0.10773255564267
H            0.99904525394857       -0.92990055651088       -0.72885788373564
H           -2.97461244168441       -0.40192403815007       -0.28394823572220
