79
 energy: -124.266710744636 gnorm: 0.000040533639 xtb: 6.7.1 (edcfbbe)
C           -5.74412068508313        3.18105812874462       -2.98262948793739
C           -5.77956026216045        3.53582648738895       -1.64253547831648
C           -5.81253002628626        2.56491465546075       -0.65038689298484
C           -5.80917272015301        1.24080159169905       -1.02943207422155
C           -5.77301414803000        0.87560379688609       -2.38280207454086
C           -5.74030076600492        1.84966387507792       -3.36687396629400
C           -5.77973922590884       -0.57627966363927       -2.46903079769876
C           -5.75548415193673       -1.42756898178693       -3.56129294105312
C           -5.77178689521644       -2.79493945069600       -3.33702961523960
C           -5.81126407531075       -3.30524638919061       -2.04822909305030
C           -5.83582539022933       -2.45807606009777       -0.94833567020402
C           -5.81999729800199       -1.09857507719007       -1.16840610786435
C           -5.84344081680845        0.01504682121818       -0.14871971245507
C           -7.04416170178463       -0.03637247787373        0.76399736100303
C           -8.37867257749646       -0.00586253621092        0.42384521402384
C           -9.32141312319982       -0.06688572874039        1.44139124168449
C           -8.93004938519591       -0.15677801730645        2.76919465547796
C           -7.58903354612125       -0.18803563473537        3.11523734339644
C           -6.64208367637799       -0.12736476027011        2.10521416235873
C           -5.19062103922603       -0.13829563352774        2.15131983707100
C           -4.30848291949531       -0.21527767442466        3.21933984726434
C           -2.95121490793490       -0.20436513293886        2.96271970228426
C           -2.46559616757030       -0.11597494263123        1.65546125067379
C           -1.02699415198900       -0.10314077705689        1.41175526002482
N           -0.60851552283887        0.02753578659213        0.15149357923367
C            0.68733256953235        0.03679082893613       -0.06705046804005
C            1.63262397474775       -0.07435834251534        0.95711354898292
C            3.07263761850864       -0.05616187094177        0.71101713335122
C            3.61786737544472        0.79174446719385       -0.25251391379342
C            4.97714856322621        0.81201462026346       -0.48670874940465
C            5.82605175625012       -0.01876508490860        0.24095897333571
N            7.20524618620069        0.00068071535768        0.00605934827524
C            8.00266506109419       -1.10449426698060       -0.22145716540236
C            7.65050407661426       -2.44251462186322       -0.32419829426034
C            8.65360274641738       -3.35479429661130       -0.59047231445658
C            9.97647740183882       -2.95278377694866       -0.76059634284633
C           10.32870467392124       -1.62017759974392       -0.68420464557206
C            9.33805592049039       -0.68434862604885       -0.41769238758656
C            9.33866196928292        0.74659328711657       -0.29380112018547
C           10.33547305476356        1.71076251945916       -0.36411416676605
C            9.99137567954640        3.03339284244595       -0.16922685350343
C            8.67575111601625        3.39775420030407        0.10811904885720
C            7.66660859065474        2.45679421651287        0.18277742780603
C            8.00214057299929        1.12861057159756       -0.03680365504947
C            5.28877301235826       -0.86869483551767        1.20494925834888
C            3.92867848093146       -0.88531329768344        1.43498196471284
C            1.08392341915013       -0.20334656003997        2.23646510732342
N           -0.21105604169735       -0.22204811003307        2.46112121360688
C           -3.35381036525044       -0.03888009144018        0.57750649796921
C           -4.70210057269990       -0.05201281870693        0.83700052605736
H           -5.71910489035715        3.95426557210949       -3.73683363818446
H           -5.78166459151975        4.58020551658405       -1.36699059527796
H           -5.84023116851214        2.84061404257151        0.39388607932633
H           -5.71235861182583        1.57857616002910       -4.41187683602496
H           -5.72444734266160       -1.03527040760174       -4.56698993567454
H           -5.75345995040627       -3.47384117707753       -4.17729081602341
H           -5.82317366199925       -4.37479463392831       -1.89798821625070
H           -5.86665549555776       -2.85491112609355        0.05609292427374
H           -8.68319525007724        0.06405255941916       -0.61030515907729
H          -10.37298292506173       -0.04409859821356        1.19599062837406
H           -9.68241232207611       -0.20291127494504        3.54308585527526
H           -7.28858411233417       -0.25798312745442        4.15011532212096
H           -4.67538687485002       -0.28235741086449        4.23278883824661
H           -2.23682069352083       -0.26260547458183        3.76890005300103
H            0.98984539492934        0.11795584816158       -1.10450615753847
H            2.97007774358573        1.44938387554305       -0.81313598799873
H            5.38939284807051        1.46088083776746       -1.24483512826599
H            6.62543816104555       -2.76274239554118       -0.21286268021010
H            8.40523510118800       -4.40273202572087       -0.67236563884981
H           10.73182310410136       -3.69699349891322       -0.96463478573076
H           11.35090242496154       -1.30636303338565       -0.83273800478952
H           11.35777679582202        1.42612793612534       -0.56236963329335
H           10.75086023195350        3.79919009049496       -0.22177516285562
H            8.43932848765885        4.43873853814312        0.27249843062956
H            6.65365717121973        2.74797054777410        0.41696095848975
H            5.94611262165783       -1.50311785440265        1.78037830159134
H            3.52129988548136       -1.55753137737629        2.17566703230911
H            1.71578761888260       -0.27536245370713        3.11398944689857
H           -2.96732035978287        0.02779807110869       -0.42735400889966
