79
 energy: -124.266776853878 gnorm: 0.000068257968 xtb: 6.7.1 (edcfbbe)
C           -5.79472082089662       -2.58828567811535       -3.51053933468239
C           -5.82165774545587       -1.21484933216723       -3.70015948276839
C           -5.83121167388359       -0.34735169917637       -2.61600113943542
C           -5.81328033035753       -0.88410807405586       -1.34774345038143
C           -5.78580869487410       -2.27177852830819       -1.14920075782633
C           -5.77640432760223       -3.13089013112314       -2.23558131390624
C           -5.77379715322088       -2.53252344282075        0.28162740182313
C           -5.74895216345686       -3.72007653738750        0.99386068628906
C           -5.74476260482129       -3.66305504124238        2.37840477384565
C           -5.76469585460166       -2.44525743594170        3.04136045437360
C           -5.78971969403034       -1.25058384541921        2.33405685325473
C           -5.79424100429181       -1.30414295217158        0.95778792606713
C           -5.82245422424737       -0.15759895199910       -0.02343045406475
C           -7.01380249391226        0.75369855881865        0.14325212276006
C           -8.35165936768172        0.42747272612604        0.10756704468024
C           -9.28387043505727        1.44141858457580        0.28308104011493
C           -8.87899139540866        2.75226036783535        0.48819891590682
C           -7.53458406988469        3.08435636743523        0.52428518945773
C           -6.59810909617785        2.07762817820562        0.35097359060358
C           -5.14633330600968        2.11138230890107        0.34242347533359
C           -4.25376419039694        3.16171290878908        0.49990071148325
C           -2.89918896751519        2.89616051268669        0.44876821417934
C           -2.42658246143967        1.59647910223589        0.24878097662888
C           -0.99024763159422        1.34262997044457        0.20906961810500
N           -0.16598964485177        2.39036889680732        0.27118275853171
C            1.12674293559135        2.15716382721007        0.22944816807137
C            1.66674111557327        0.87000692143209        0.14384767843709
C            3.10437603468918        0.61595337179742        0.10966979028575
C            3.98477046991089        1.40679656797481        0.84826005972790
C            5.34287728731228        1.16827800935086        0.81960288794507
C            5.85702156342552        0.13538824079090        0.03889291401622
N            7.23473008719739       -0.10310157381635        0.00144064006173
C            8.21293680308632        0.84432042884847       -0.23270049383480
C            8.08377535276754        2.19381929815834       -0.52747417269061
C            9.23877963721480        2.91825895655855       -0.75241548302697
C           10.49552588688545        2.32004550833718       -0.69590937079614
C           10.62873493235938        0.97256659632838       -0.42687524664584
C            9.48234433327870        0.22341900689211       -0.19736418192792
C            9.24983295811909       -1.16655008284281        0.08021630144885
C           10.08915511261237       -2.25906351726188        0.25354002536500
C            9.52644359312646       -3.48629565206867        0.54179416912744
C            8.14691476091514       -3.62872780911275        0.67246874136839
C            7.29143001280821       -2.55664314042007        0.50442599426872
C            7.84962128793856       -1.32592242428579        0.19062855420609
C            4.98499078895967       -0.65673956697676       -0.70460971428439
C            3.62665640456302       -0.42113121132317       -0.66342839517690
C            0.71262905588291       -0.15124493461702        0.09254054558008
N           -0.58157639429829        0.07600436950344        0.11455592752565
C           -3.32529547533788        0.53661699874513        0.08830492083260
C           -4.67102294840858        0.80604930421133        0.13324820838662
H           -5.78801582302183       -3.24347049119408       -4.36959753750411
H           -5.83560450486736       -0.81484933440521       -4.70338032166187
H           -5.85241366355740        0.72282612440473       -2.76292718023404
H           -5.75530197503082       -4.20122431176713       -2.09336245264219
H           -5.73325014586395       -4.67096012704800        0.48210616042727
H           -5.72571517482702       -4.57952491803556        2.95025645947165
H           -5.76073449730151       -2.42567398211888        4.12128805850943
H           -5.80522498823731       -0.30152486078940        2.85009820491295
H           -8.66678250410768       -0.59336855661535       -0.05264920469055
H          -10.33783289983758        1.20658761904355        0.25947035986152
H           -9.62334340639750        3.52374139363287        0.62178523517514
H           -7.22353546533922        4.10597204711040        0.68455306729416
H           -4.61065231450682        4.16839714066224        0.65929699807845
H           -2.17679068018669        3.68873013143183        0.56558579517275
H            1.76322889404683        3.03403440594923        0.24709232451794
H            3.59687069187218        2.19684689350054        1.47403415569739
H            6.01389763319988        1.76859106993321        1.41548262712258
H            7.11364158796750        2.66312555161399       -0.59259927165689
H            9.16477020012648        3.97118397705596       -0.98136191843304
H           11.37438060004791        2.92116961252319       -0.87559329457289
H           11.60139569599860        0.50500565730853       -0.39962371611347
H           11.15927970677020       -2.14470073207425        0.16881619516079
H           10.16109676763469       -4.34915637730416        0.67856824373626
H            7.73652760552139       -4.59798610807146        0.91467639637546
H            6.22515513850531       -2.67387637561553        0.62672225148205
H            5.38240986885448       -1.44387751728309       -1.32767676672829
H            2.96318100475970       -1.02807831156601       -1.26143798340578
H            1.00579106838244       -1.19361484662904        0.05027885973126
H           -2.94874131721985       -0.46219019500140       -0.06721876418639
