  82
       -136.83712520
 F         -1.6437272999       -5.5955008612        0.0619743574
 C         -2.8085482389       -5.2403245796       -0.5204575030
 F         -3.7522538333       -6.0133749531        0.0353288743
 F         -2.7089102131       -5.6240001767       -1.8040763789
 C         -3.0841480424       -3.7721768370       -0.3750779490
 C         -3.9311911975       -3.3137949496        0.6252150369
 C         -4.1524812492       -1.9580114046        0.7657118557
 C         -3.5276442589       -1.0574689695       -0.0937986054
 N         -3.7617105745        0.3145318464        0.0366068131
 C         -2.8294114301        1.3255204345        0.0991930788
 C         -1.3893401782        1.1447207501        0.1320862328
 C         -0.5862754602        2.1336263590       -0.4375383334
 C          0.7864627159        2.0163988900       -0.4212375512
 C          1.4023732320        0.9106025908        0.1653688193
 C          2.8643342131        0.7797054936        0.1632829879
 C          3.4700510931       -0.4554654457       -0.0618377264
 C          4.8442304600       -0.5768229984       -0.0933229024
 C          5.6506608930        0.5386878506        0.1182540577
 N          7.0447251035        0.4234881083        0.0800617369
 C          7.8992135324        1.2279090839       -0.6490070082
 C          7.6071437902        2.2681335793       -1.5195215012
 C          8.6630994235        2.8972557512       -2.1508459933
 C          9.9808810441        2.5010847034       -1.9340878829
 C         10.2759518268        1.4500724394       -1.0890297272
 C          9.2314340382        0.8020971153       -0.4430350161
 C          9.1686780865       -0.3121996553        0.4608291487
 C         10.1326599708       -1.1267890074        1.0398876020
 C          9.7247515649       -2.1209410546        1.9064336856
 C          8.3766182984       -2.2973697404        2.2098920079
 C          7.3992300198       -1.4994495945        1.6464785241
 C          7.8007715090       -0.5149013612        0.7550653592
 C          5.0544282635        1.7735171735        0.3627882537
 C          3.6799547650        1.8902572040        0.3757620962
 C          0.5968482231       -0.0620162165        0.7555129153
 C         -0.7781660333        0.0530918177        0.7477174990
 N         -3.4127021342        2.4920453943        0.1767076634
 C         -4.7577063149        2.2765022926        0.1670687488
 C         -5.6865799637        3.3964393736        0.2025248465
 C         -5.2756820471        4.5922474691        0.7897231352
 C         -6.1295726684        5.6766980013        0.8389024637
 C         -7.4019663452        5.5854899710        0.2982777794
 C         -7.8102977015        4.4065422185       -0.3036690779
 C         -6.9602276592        3.3179865297       -0.3568065819
 C         -5.0039404563        0.9169336257        0.0934733327
 C         -6.2506034667        0.1636074119        0.0603092403
 C         -6.4756530115       -0.8113366114       -0.9100419319
 C         -7.6623139660       -1.5204870037       -0.9232081006
 C         -8.6363058513       -1.2679532187        0.0281199076
 C         -8.4222147334       -0.2960733193        0.9926079027
 C         -7.2382634715        0.4153422555        1.0120652884
 C         -2.6786594775       -1.5240076455       -1.0961584835
 C         -2.4521893748       -2.8780459973       -1.2322450851
 H         -4.4150134944       -4.0140825668        1.2881630668
 H         -4.8044402142       -1.5925198549        1.5435629739
 H         -1.0650480288        2.9867446944       -0.8922597810
 H          1.3930313716        2.7779103203       -0.8886518753
 H          2.8558711736       -1.3244080724       -0.2476124009
 H          5.3021171109       -1.5321516867       -0.3021621980
 H          6.5883462444        2.5705454742       -1.7097705487
 H          8.4612920350        3.7121332529       -2.8302965564
 H         10.7785821787        3.0202688757       -2.4439111402
 H         11.2957109963        1.1316298097       -0.9340766699
 H         11.1784699612       -0.9783223777        0.8171769523
 H         10.4577669749       -2.7670607590        2.3657919953
 H          8.0886902425       -3.0727575480        2.9043617446
 H          6.3590484713       -1.6327741805        1.9032040297
 H          5.6765103691        2.6345164382        0.5566137404
 H          3.2299834729        2.8499019775        0.5828051901
 H          1.0550609894       -0.9051968032        1.2512828741
 H         -1.3751225696       -0.6980462274        1.2441678215
 H         -4.2801093482        4.6483833953        1.2019078548
 H         -5.8037540096        6.5975725871        1.3002826357
 H         -8.0709401208        6.4324416107        0.3383744359
 H         -8.7961752742        4.3360154267       -0.7399675267
 H         -7.2796814006        2.4091340717       -0.8446749550
 H         -5.7266082787       -1.0004381836       -1.6662815516
 H         -7.8275725342       -2.2708281708       -1.6821221035
 H         -9.5616545244       -1.8236893189        0.0152510362
 H         -9.1801325307       -0.0939981056        1.7347085609
 H         -7.0658769575        1.1729233342        1.7625021853
 H         -2.2012627807       -0.8209438300       -1.7611578230
 H         -1.7990073641       -3.2458934996       -2.0083762814
  82
       -136.83709692
 F         -2.9628778327       -5.9025365983        0.5040339018
 C         -2.5910149976       -5.1428377635       -0.5352775925
 F         -3.2045846715       -5.6621179465       -1.6186454527
 F         -1.2769133392       -5.3641652295       -0.7171561321
 C         -2.9059292240       -3.6869855330       -0.3517967249
 C         -3.7982398077       -3.2727594000        0.6278454350
 C         -4.0826254918       -1.9286590763        0.7693777671
 C         -3.4822461689       -0.9970158684       -0.0741219560
 N         -3.7664345228        0.3643583109        0.0641956907
 C         -2.8636541999        1.4009007428        0.1414558680
 C         -1.4202917267        1.2407077319        0.1754144340
 C         -0.6217691251        2.2054146760       -0.4384449292
 C          0.7511119831        2.0798622359       -0.4391096697
 C          1.3696228562        0.9909763297        0.1752656318
 C          2.8290375423        0.8365286077        0.1476306960
 C          3.4052242293       -0.4207076450       -0.0297041763
 C          4.7755803402       -0.5742119849       -0.0706857818
 C          5.6086813930        0.5314548202        0.0808327698
 N          6.9991837730        0.3779569751        0.0452779739
 C          7.8746503692        1.1147054895       -0.7285444094
 C          7.6105797627        2.1125931328       -1.6557044600
 C          8.6827540885        2.6733581689       -2.3230628842
 C          9.9889967713        2.2511174358       -2.0861863130
 C         10.2556751736        1.2417118014       -1.1830576549
 C          9.1944868626        0.6625362279       -0.4999474479
 C          9.1018939114       -0.3962167123        0.4660756560
 C         10.0430190738       -1.2041636303        1.0903243518
 C          9.6082745939       -2.1346141386        2.0128697569
 C          8.2562385516       -2.2543189838        2.3264828299
 C          7.3012176898       -1.4620933055        1.7184202733
 C          7.7294154280       -0.5421022682        0.7721315050
 C          5.0426871044        1.7903215942        0.2670751994
 C          3.6710286492        1.9381161426        0.2919176017
 C          0.5681721947        0.0493239157        0.8193410638
 C         -0.8055649812        0.1720274567        0.8268236442
 N         -3.4786133822        2.5494340805        0.2262788976
 C         -4.8180581941        2.2955741119        0.2074552622
 C         -5.7784963040        3.3881706358        0.2518165200
 C         -7.0521217408        3.2757032700       -0.3021391819
 C         -7.9344763968        4.3375169665       -0.2364571352
 C         -7.5588086817        5.5239138666        0.3721648654
 C         -6.2865486804        5.6498756551        0.9061084716
 C         -5.4006099970        4.5919826892        0.8449386211
 C         -5.0254849221        0.9304677820        0.1192541339
 C         -6.2469403237        0.1378771201        0.0649676974
 C         -6.4271578597       -0.8317383038       -0.9201348004
 C         -7.5877052910       -1.5820431754       -0.9559811137
 C         -8.5802693846       -1.3761024302       -0.0125690973
 C         -8.4105985593       -0.4103452571        0.9668826715
 C         -7.2526400874        0.3418946680        1.0091291116
 C         -2.5970211096       -1.4208191433       -1.0643294259
 C         -2.3062013071       -2.7622377067       -1.1999847342
 H         -4.2593683413       -3.9965169677        1.2816550592
 H         -4.7651420793       -1.5964116888        1.5359037335
 H         -1.1020351362        3.0438550372       -0.9184120012
 H          1.3542097595        2.8196034049       -0.9443832607
 H          2.7702529618       -1.2834606432       -0.1685154092
 H          5.2101853488       -1.5483352320       -0.2384503204
 H          6.6004039137        2.4340800900       -1.8603233058
 H          8.5030774965        3.4537370353       -3.0477262702
 H         10.7998865973        2.7165841503       -2.6262593894
 H         11.2659916187        0.9023836709       -1.0111961199
 H         11.0922516933       -1.0993980562        0.8590760981
 H         10.3232275592       -2.7746614694        2.5078447843
 H          7.9472756229       -2.9800649895        3.0642151934
 H          6.2580229612       -1.5500472801        1.9824351081
 H          5.6858160048        2.6460098428        0.4088507780
 H          3.2451392847        2.9167440444        0.4566154072
 H          1.0294356797       -0.7755779529        1.3420864524
 H         -1.4001037898       -0.5544518512        1.3614367637
 H         -7.3465788720        2.3614656448       -0.7955673755
 H         -8.9204050011        4.2400666479       -0.6675200964
 H         -8.2532815222        6.3495525798        0.4229811838
 H         -5.9858663627        6.5771247725        1.3717721657
 H         -4.4047961302        4.6753479322        1.2518638930
 H         -5.6633537062       -0.9849072693       -1.6696813038
 H         -7.7177699511       -2.3278336743       -1.7261607005
 H         -9.4853083870       -1.9637433409       -0.0428844625
 H         -9.1834110310       -0.2449720107        1.7027075083
 H         -7.1155051915        1.0952823791        1.7709835121
 H         -2.1421106482       -0.6946593748       -1.7201292728
 H         -1.6202740230       -3.0970752461       -1.9629138963
  82
       -136.83697703
 F         -3.4120845345       -5.8664269289       -1.2902797022
 C         -2.7215039238       -5.2232692127       -0.3400851602
 F         -1.4183132822       -5.4569138632       -0.5968968379
 F         -2.9851665949       -5.8582340225        0.8172244109
 C         -3.0259573273       -3.7555285143       -0.2665672224
 C         -2.4568821967       -3.0144058921        0.7638497153
 C         -2.7095429773       -1.6617304695        0.8534778373
 C         -3.5237910505       -1.0415402051       -0.0933938828
 N         -3.7732717398        0.3301958684        0.0029102312
 C         -2.8472929489        1.3344563254        0.1741738921
 C         -1.4067528450        1.1506897362        0.1667696410
 C         -0.6199283434        1.9810221560        0.9647680840
 C          0.7526593798        1.8547376052        0.9662035193
 C          1.3840488959        0.9009759823        0.1676886558
 C          2.8462080279        0.7694141510        0.1596166180
 C          3.4516960731       -0.4836120381        0.0765549297
 C          4.8256636627       -0.6082845245        0.0492143058
 C          5.6335797150        0.5243497923        0.1132259035
 N          7.0272823903        0.4040975483        0.0813182924
 C          7.8810269458        1.1246804415       -0.7320227899
 C          7.5890065278        2.0626539441       -1.7120134116
 C          8.6450760992        2.6223904470       -2.4053076202
 C          9.9633354535        2.2560161448       -2.1439854025
 C         10.2584343429        1.3022950221       -1.1907595479
 C          9.2136636449        0.7255539707       -0.4807378057
 C          9.1522979491       -0.2847881221        0.5379948204
 C         10.1175123950       -1.0332377841        1.1985130329
 C          9.7116267405       -1.9290047863        2.1672222117
 C          8.3643973253       -2.0695737675        2.4923523385
 C          7.3859780157       -1.3356629148        1.8494342230
 C          7.7848868739       -0.4544574580        0.8545418258
 C          5.0378457713        1.7799118144        0.2058808355
 C          3.6633191814        1.8970757717        0.2239140899
 C          0.5937098896        0.0864640865       -0.6420542217
 C         -0.7800066552        0.2098136651       -0.6492736198
 N         -3.4338194848        2.4967190507        0.2781429109
 C         -4.7760484454        2.2849653201        0.1744073200
 C         -5.7124381229        3.3932381123        0.2890979127
 C         -5.2828649949        4.6757749121       -0.0484866060
 C         -6.1454679043        5.7501961134        0.0485389477
 C         -7.4453343371        5.5614861321        0.4891266838
 C         -7.8731591446        4.2929559970        0.8452285263
 C         -7.0147521548        3.2139031039        0.7508894782
 C         -5.0152959316        0.9349543083       -0.0125463549
 C         -6.2550379406        0.1916428884       -0.1941439949
 C         -7.1849295493        0.6180961261       -1.1421007289
 C         -8.3605618722       -0.0827488966       -1.3294161930
 C         -8.6236717785       -1.2174182091       -0.5781258713
 C         -7.7071732486       -1.6447178039        0.3680328033
 C         -6.5292168601       -0.9470016432        0.5615260351
 C         -4.0894941598       -1.7891296152       -1.1232847681
 C         -3.8421216552       -3.1453881394       -1.2089659108
 H         -1.8277031541       -3.5017119451        1.4928231194
 H         -2.2797016515       -1.0774444432        1.6523419638
 H         -1.1089822261        2.7202433513        1.5796975093
 H          1.3454788670        2.4887624359        1.6085949284
 H          2.8383424932       -1.3720213985        0.0429151708
 H          5.2815123331       -1.5829917892       -0.0378106402
 H          6.5703058170        2.3396727028       -1.9378115884
 H          8.4428862360        3.3579716496       -3.1697889641
 H         10.7609953436        2.7199913968       -2.7045945267
 H         11.2783259901        1.0043831618       -1.0000821651
 H         11.1627493095       -0.9104188984        0.9583900290
 H         10.4454948078       -2.5240052404        2.6899115956
 H          8.0777669383       -2.7653139635        3.2670565993
 H          6.3470259858       -1.4387035774        2.1240723462
 H          5.6596993944        2.6599228494        0.2743348019
 H          3.2154125030        2.8783780494        0.2729808104
 H          1.0638124875       -0.6320484348       -1.2971719281
 H         -1.3639480541       -0.4102185995       -1.3137902063
 H         -4.2665515452        4.8065922527       -0.3865616125
 H         -5.8048968401        6.7394890183       -0.2201605264
 H         -8.1212009794        6.4007698305        0.5625715199
 H         -8.8812932643        4.1437495754        1.2041742685
 H         -7.3501236829        2.2318492773        1.0496175316
 H         -6.9743013077        1.5018820823       -1.7263204798
 H         -9.0732118963        0.2552009117       -2.0668427307
 H         -9.5421418325       -1.7647381077       -0.7274180581
 H         -7.9109839434       -2.5231557943        0.9621992323
 H         -5.8265729316       -1.2745554645        1.3148425409
 H         -4.7159600540       -1.3048646886       -1.8559707217
 H         -4.2786661713       -3.7267587032       -2.0060241957
  82
       -136.83693226
 F         -1.8276308556       -5.6788913019        0.2997880793
 C         -2.9092028936       -5.2891559208       -0.4082950465
 F         -3.9332406976       -6.0277209107        0.0442803389
 F         -2.6837264924       -5.6835898467       -1.6715080035
 C         -3.1527374767       -3.8125611221       -0.2929705384
 C         -3.9993731808       -3.3256556691        0.6947342155
 C         -4.1952038744       -1.9644494288        0.8173235869
 C         -3.5444316789       -1.0869103599       -0.0469558267
 N         -3.7565521458        0.2908775262        0.0652304653
 C         -2.8127250715        1.2887521047        0.1557157620
 C         -1.3749912714        1.1017079326        0.2180950721
 C         -0.5663126617        2.1189368260       -0.2925291343
 C          0.8057735340        2.0050192632       -0.2630474740
 C          1.4167477434        0.8716428519        0.2741060382
 C          2.8791764389        0.7450112639        0.2648688192
 C          3.4898778126       -0.4649168394       -0.0596346953
 C          4.8645107791       -0.5708249354       -0.1234542538
 C          5.6654032227        0.5331586978        0.1578077756
 N          7.0592529502        0.4406971100        0.0746816964
 C          7.8816091527        1.3157511804       -0.6089676884
 C          7.5509916118        2.4197383048       -1.3818563948
 C          8.5798457208        3.1152296205       -1.9876506859
 C          9.9085559059        2.7231767139       -1.8411001060
 C         10.2415772850        1.6103731243       -1.0951953235
 C          9.2246459695        0.8950328143       -0.4766465068
 C          9.2028077067       -0.2916291229        0.3319731107
 C         10.1938077187       -1.1372005289        0.8125574990
 C          9.8243372798       -2.2072703945        1.6025675873
 C          8.4880620749       -2.4295641733        1.9275596150
 C          7.4843380616       -1.6018210039        1.4619089613
 C          7.8467994661       -0.5393058868        0.6465199342
 C          5.0639036205        1.7383383830        0.5129941662
 C          3.6891277659        1.8419661499        0.5548659417
 C          0.6072229153       -0.1286342254        0.8088924227
 C         -0.7684684008       -0.0146652854        0.7925792664
 N         -3.3835764166        2.4634224780        0.2093345512
 C         -4.7295754303        2.2671071678        0.1531053514
 C         -5.6382558999        3.4041257604        0.1417932359
 C         -5.2260587394        4.5979260271        0.7323223551
 C         -6.0556901404        5.7021440263        0.7306953176
 C         -7.3046280409        5.6329211572        0.1348892431
 C         -7.7137723322        4.4553580727       -0.4693712729
 C         -6.8880451783        3.3468694234       -0.4713083773
 C         -4.9918549669        0.9104570064        0.0758672073
 C         -6.2465498406        0.1744521338       -0.0015454608
 C         -6.4429801729       -0.8127491699       -0.9659012799
 C         -7.6388949933       -1.5039985010       -1.0227103883
 C         -8.6518593263       -1.2204125443       -0.1222552265
 C         -8.4667200508       -0.2357870619        0.8353874593
 C         -7.2732917374        0.4569640710        0.8990889913
 C         -2.6964498609       -1.5816712251       -1.0361684569
 C         -2.4954729995       -2.9417441367       -1.1545718186
 H         -4.5028039403       -4.0091740530        1.3606522716
 H         -4.8483554943       -1.5761179285        1.5831068528
 H         -1.0426741203        2.9907140671       -0.7129590454
 H          1.4168959705        2.7896507525       -0.6840552108
 H          2.8785694879       -1.3223133922       -0.3007102946
 H          5.3259115736       -1.5026401985       -0.4145534425
 H          6.5233061869        2.7211282994       -1.5182665381
 H          8.3477717451        3.9800205102       -2.5915370030
 H         10.6841275275        3.2952532020       -2.3279854447
 H         11.2693865111        1.2957213426       -0.9954749648
 H         11.2306261436       -0.9545714136        0.5737640607
 H         10.5788586428       -2.8787607686        1.9841750639
 H          8.2307222302       -3.2656421934        2.5609370315
 H          6.4539627750       -1.7722086679        1.7355896535
 H          5.6825721576        2.5864220579        0.7656813470
 H          3.2342401069        2.7781335379        0.8429475383
 H          1.0623391525       -0.9947762936        1.2668740261
 H         -1.3681299783       -0.7883864728        1.2492987201
 H         -4.2482189004        4.6370334251        1.1867959628
 H         -5.7287135655        6.6214040451        1.1945005428
 H         -7.9545133905        6.4956015776        0.1342130102
 H         -8.6810914171        4.4016189374       -0.9476543263
 H         -7.2067368277        2.4391479676       -0.9619390923
 H         -5.6640594678       -1.0257666808       -1.6846105555
 H         -7.7805585224       -2.2643260771       -1.7765051338
 H         -9.5846066000       -1.7618262073       -0.1693250554
 H         -9.2552721731       -0.0087543409        1.5373021399
 H         -7.1242108840        1.2245810630        1.6443263279
 H         -2.1975936294       -0.8956723164       -1.7031792700
 H         -1.8437675764       -3.3310312020       -1.9215426977
  82
       -136.83678251
 F         -2.3270579791       -5.4198221017        1.9466390800
 C         -2.5063225845       -5.0959142317        0.6553991373
 F         -3.4363129522       -5.9356640445        0.1783016334
 F         -1.3547460589       -5.4200571043        0.0300882287
 C         -2.8614568302       -3.6501777653        0.4646682557
 C         -2.2541992485       -2.6921266115        1.2688860236
 C         -2.5545402067       -1.3578234907        1.0880111706
 C         -3.4519014871       -0.9747411223        0.0924916926
 N         -3.7561359151        0.3780284311       -0.0862693600
 C         -2.8744387387        1.4271035701       -0.2195406643
 C         -1.4293683345        1.2953281473       -0.2758564975
 C         -0.6417846936        2.3137569922        0.2617527782
 C          0.7330585114        2.2133377297        0.2548896389
 C          1.3653942386        1.0994453576       -0.2977242922
 C          2.8260719438        0.9590665493       -0.2627466907
 C          3.5212476814        0.4199038497       -1.3442675190
 C          4.8895347113        0.2507465355       -1.2948053005
 C          5.5985342004        0.6050788998       -0.1496100488
 N          6.9800745742        0.3923932864       -0.0812909027
 C          7.9285788217        1.3153860887        0.3127820593
 C          7.7743617921        2.6526757231        0.6488587798
 C          8.9081244255        3.3685685976        0.9828133501
 C         10.1699008602        2.7780476226        0.9763448196
 C         10.3323919351        1.4544103118        0.6193945052
 C          9.2077264052        0.7140394850        0.2800729583
 C          9.0103519983       -0.6428485638       -0.1472633705
 C          9.8684098949       -1.7165422075       -0.3453139687
 C          9.3342092574       -2.9257531448       -0.7429380106
 C          7.9617880535       -3.0760121284       -0.9288339731
 C          7.0882483719       -2.0225596293       -0.7385363045
 C          7.6218045079       -0.7983995473       -0.3619919353
 C          4.9152738221        1.1579828221        0.9304794884
 C          3.5486579056        1.3374083149        0.8680413660
 C          0.5747035393        0.1071765220       -0.8756706198
 C         -0.8013301677        0.2014764513       -0.8701681295
 N         -3.5133878699        2.5610535889       -0.3275299793
 C         -4.8466218110        2.2844664639       -0.2673764418
 C         -5.8280791871        3.3577740934       -0.3195612888
 C         -5.4869080840        4.5514364616       -0.9539504862
 C         -6.3930507494        5.5917273899       -1.0208696775
 C         -7.6492350466        5.4582686242       -0.4518326640
 C         -7.9884025790        4.2822038349        0.1968850163
 C         -7.0856149799        3.2380937035        0.2685425422
 C         -5.0264752711        0.9193811853       -0.1292123003
 C         -6.2298922246        0.1049187277       -0.0211937248
 C         -7.2613581623        0.2591042284       -0.9468142246
 C         -8.3999366249       -0.5182084138       -0.8570939527
 C         -8.5242649486       -1.4604084071        0.1516028773
 C         -7.5067748374       -1.6156911998        1.0778335098
 C         -6.3658974481       -0.8393747795        0.9951486517
 C         -4.0525242333       -1.9390815337       -0.7135102576
 C         -3.7581428082       -3.2752875609       -0.5272982670
 H         -1.5606609555       -2.9949007649        2.0380277724
 H         -2.0965083992       -0.6059150277        1.7118826889
 H         -1.1332132818        3.1752550092        0.6864451305
 H          1.3289897033        3.0127777198        0.6697612508
 H          2.9859488176        0.1553595166       -2.2441286728
 H          5.4209955164       -0.1469368626       -2.1465134098
 H          6.8029227393        3.1238490720        0.6399213804
 H          8.8142513237        4.4104567634        1.2511039414
 H         11.0310721269        3.3707388392        1.2465540847
 H         11.3116813285        1.0006174216        0.5987742947
 H         10.9299391325       -1.6044297295       -0.1843411550
 H          9.9839834425       -3.7728629352       -0.9041026581
 H          7.5707575407       -4.0383351867       -1.2246661221
 H          6.0243894241       -2.1546990191       -0.8666402616
 H          5.4593897208        1.4211915967        1.8252763953
 H          3.0271330359        1.7415845277        1.7231003811
 H          1.0435298530       -0.7602007227       -1.3164827208
 H         -1.3867864086       -0.5729402696       -1.3436558576
 H         -4.5031383371        4.6412929621       -1.3880009332
 H         -6.1207197459        6.5112025569       -1.5183119282
 H         -8.3594601317        6.2701294147       -0.5066892503
 H         -8.9617969095        4.1789253695        0.6544224223
 H         -7.3517222930        2.3321951675        0.7926346507
 H         -7.1588135193        0.9927039489       -1.7331085761
 H         -9.1921325319       -0.3921493540       -1.5800364910
 H         -9.4128521168       -2.0697482236        0.2171237344
 H         -7.6011445114       -2.3430394594        1.8703100262
 H         -5.5826335605       -0.9536572425        1.7312526890
 H         -4.7430219898       -1.6379556834       -1.4857288600
 H         -4.2225438307       -4.0250838064       -1.1487100752
  82
       -136.83669024
 F         -2.1646504504       -5.3341726315        1.9844286906
 C         -2.3421841741       -5.0181058630        0.6907906695
 F         -3.2307148263       -5.8956611666        0.2033021025
 F         -1.1705827881       -5.2938875916        0.0794848265
 C         -2.7529893553       -3.5877993907        0.4955296252
 C         -2.1716847949       -2.6050648707        1.2890817339
 C         -2.5160612656       -1.2827078596        1.1006196790
 C         -3.4311136325       -0.9356508362        0.1076976970
 N         -3.7653660251        0.4078026456       -0.0855105899
 C         -2.8992358132        1.4684352167       -0.2295397919
 C         -1.4532986846        1.3432928419       -0.2922903358
 C         -0.6609892542        2.3451539614        0.2678014647
 C          0.7135469071        2.2349876754        0.2616004316
 C          1.3391299647        1.1293897810       -0.3144488438
 C          2.7981933069        0.9732034765       -0.2750007452
 C          3.4953148899        0.4643334311       -1.3697049039
 C          4.8611830254        0.2774275475       -1.3161191686
 C          5.5649870090        0.5799090436       -0.1528702306
 N          6.9433626741        0.3497150667       -0.0818634526
 C          7.8967770089        1.2457392076        0.3604439534
 C          7.7517431095        2.5672040164        0.7577534189
 C          8.8893380332        3.2572785428        1.1308317547
 C         10.1462619848        2.6571803255        1.1042938472
 C         10.3000555989        1.3505151649        0.6862728600
 C          9.1713785392        0.6364789214        0.3062492397
 C          8.9662666415       -0.6969332480       -0.1862779425
 C          9.8181834908       -1.7658048225       -0.4313244870
 C          9.2782362737       -2.9504696146       -0.8903593455
 C          7.9057961618       -3.0818725438       -1.0895889262
 C          7.0382938468       -2.0327021003       -0.8528561875
 C          7.5778761047       -0.8314906902       -0.4155999401
 C          4.8791644265        1.1007277790        0.9416322693
 C          3.5156910182        1.3011081590        0.8744598591
 C          0.5437272531        0.1568487341       -0.9186491780
 C         -0.8314352260        0.2596595747       -0.9115253581
 N         -3.5536229515        2.5924537744       -0.3433105469
 C         -4.8829658192        2.2966527096       -0.2769990677
 C         -5.8822091241        3.3532862925       -0.3326318434
 C         -5.5671870479        4.5464022659       -0.9813260218
 C         -6.4923707407        5.5696919141       -1.0511456412
 C         -7.7415628885        5.4195910473       -0.4708467713
 C         -8.0548463968        4.2440424762        0.1918135092
 C         -7.1330391464        3.2169743885        0.2663802997
 C         -5.0432327310        0.9301153666       -0.1290492108
 C         -6.2342498158        0.0979882548       -0.0187747981
 C         -7.2657200612        0.2320008388       -0.9474897832
 C         -8.3910411869       -0.5643607127       -0.8584500642
 C         -8.5020588689       -1.5054079314        0.1529341062
 C         -7.4848773507       -1.6400892087        1.0827653381
 C         -6.3568817538       -0.8450614725        1.0003778407
 C         -4.0098020832       -1.9248143164       -0.6838685994
 C         -3.6713264634       -3.2496024127       -0.4897045194
 H         -1.4635179421       -2.8799441777        2.0555369824
 H         -2.0778564250       -0.5118602187        1.7154196525
 H         -1.1470019087        3.2000464071        0.7117729230
 H          1.3145501718        3.0201304246        0.6960803105
 H          2.9636257709        0.2373661271       -2.2819556054
 H          5.3945914383       -0.0946319796       -2.1780946742
 H          6.7848500392        3.0475092208        0.7639109644
 H          8.8020858924        4.2862024520        1.4470412980
 H         11.0105525709        3.2294363828        1.4064883976
 H         11.2758199855        0.8899677812        0.6490487510
 H         10.8794240785       -1.6688677621       -0.2595222288
 H          9.9232025596       -3.7931194763       -1.0896982567
 H          7.5096796000       -4.0261999305       -1.4326885022
 H          5.9743747634       -2.1519281522       -0.9919592485
 H          5.4185617618        1.3239297017        1.8500535840
 H          2.9916312810        1.6808457498        1.7392183187
 H          1.0081598901       -0.7028479340       -1.3787037205
 H         -1.4220313048       -0.4999019807       -1.4024594338
 H         -4.5889054104        4.6494098104       -1.4243769949
 H         -6.2407780026        6.4885554947       -1.5604099832
 H         -8.4665180517        6.2182595821       -0.5278585613
 H         -9.0218860187        4.1287135905        0.6595340746
 H         -7.3783401929        2.3119233737        0.8019990646
 H         -7.1735676340        0.9649161058       -1.7356090676
 H         -9.1837527564       -0.4532810083       -1.5831869863
 H         -9.3810368071       -2.1286186588        0.2188780442
 H         -7.5696341880       -2.3656834853        1.8781568192
 H         -5.5736414846       -0.9435142460        1.7389779177
 H         -4.7165861646       -1.6519900378       -1.4519852446
 H         -4.1159961978       -4.0186051754       -1.1020628965
  82
       -136.83619602
 F         -1.8286095200       -5.5882626947        0.1642863455
 C         -2.5239613143       -5.0657830867       -0.8655207292
 F         -3.6335853022       -5.8202378652       -0.9779639235
 F         -1.7963831734       -5.2983850802       -1.9657886499
 C         -2.8423108669       -3.6145196962       -0.6537134636
 C         -3.6432935868       -3.2639413438        0.4274399280
 C         -3.9493111832       -1.9373890214        0.6536669307
 C         -3.4574868095       -0.9565133523       -0.2052621464
 N         -3.7622228015        0.3907381926        0.0045648320
 C         -2.8764915419        1.4447163526       -0.0059873409
 C         -1.4334369955        1.2795293443       -0.0709429787
 C         -0.6565356231        2.1761310227       -0.8016556193
 C          0.7144921274        2.0293479170       -0.8571933219
 C          1.3530518873        0.9940462293       -0.1743864260
 C          2.8120696930        0.8352842244       -0.1986637411
 C          3.3879412002       -0.4351414121       -0.1704399603
 C          4.7568065669       -0.5937439118       -0.1189345032
 C          5.5906654312        0.5212012819       -0.0914409588
 N          6.9757071693        0.3557437392        0.0280236873
 C          7.9453376719        0.9198024902       -0.7759259133
 C          7.8042945393        1.7078408260       -1.9090234498
 C          8.9545986803        2.1177992357       -2.5558212380
 C         10.2178451823        1.7512226843       -2.0963986833
 C         10.3635818157        0.9516813302       -0.9803517212
 C          9.2224150181        0.5263910102       -0.3132861612
 C          9.0021915170       -0.3061005213        0.8362813004
 C          9.8497688467       -0.9577467531        1.7227270738
 C          9.2944007059       -1.6702530722        2.7666546386
 C          7.9133053341       -1.7281841500        2.9404170767
 C          7.0497166877       -1.0894179937        2.0714179305
 C          7.6017380751       -0.3889810547        1.0086236990
 C          5.0287836510        1.7932964003       -0.1560310791
 C          3.6578619354        1.9439232009       -0.2102215575
 C          0.5701559141        0.1151756599        0.5747986260
 C         -0.8000420560        0.2516678799        0.6267923586
 N         -3.4994272228        2.5809772298        0.1447550081
 C         -4.8297511620        2.2999492537        0.2622920622
 C         -5.8057251860        3.3686144016        0.4126311410
 C         -5.3930566234        4.5908162219        0.9415033704
 C         -6.2960832836        5.6234686932        1.1033872388
 C         -7.6213317604        5.4537966155        0.7364081491
 C         -8.0343719892        4.2489699140        0.1915702761
 C         -7.1351992862        3.2128091741        0.0245970696
 C         -5.0191829489        0.9310885952        0.1916707924
 C         -6.2193035544        0.1087532768        0.2813387826
 C         -6.4989885695       -0.8584192842       -0.6822939673
 C         -7.6309005818       -1.6446932079       -0.5724105400
 C         -8.4951578243       -1.4769854278        0.4963919472
 C         -8.2270949308       -0.5127671602        1.4551588493
 C         -7.0968538882        0.2749127891        1.3522726432
 C         -2.6576559233       -1.3153093835       -1.2885357712
 C         -2.3461287619       -2.6413684316       -1.5110439689
 H         -4.0199945742       -4.0301103058        1.0875217264
 H         -4.5635359565       -1.6565139847        1.4947667405
 H         -1.1470989013        2.9818387190       -1.3257005236
 H          1.2978444183        2.7160781125       -1.4524650729
 H          2.7560455848       -1.3101987754       -0.2083327550
 H          5.1919493666       -1.5820460784       -0.1059592772
 H          6.8285080297        1.9830742206       -2.2807215847
 H          8.8726723072        2.7332606206       -3.4395206817
 H         11.0925240298        2.0934428522       -2.6290920042
 H         11.3417615878        0.6559862958       -0.6321884773
 H         10.9204586532       -0.8998200211        1.5977581490
 H          9.9356263838       -2.1841078545        3.4671130111
 H          7.5083354644       -2.2808166770        3.7752879064
 H          5.9813049475       -1.1249051268        2.2237470249
 H          5.6721760720        2.6602942960       -0.1324168014
 H          3.2355613154        2.9376097643       -0.2189823844
 H          1.0440425757       -0.6672300466        1.1484725537
 H         -1.3787822398       -0.4265614663        1.2371085703
 H         -4.3574360040        4.7080312610        1.2204905781
 H         -5.9677346342        6.5649242971        1.5191892399
 H         -8.3288961437        6.2593569132        0.8671598269
 H         -9.0632488550        4.1169420191       -0.1107069123
 H         -7.4615315323        2.2852039436       -0.4212428991
 H         -5.8361856757       -0.9826134707       -1.5272386184
 H         -7.8390451635       -2.3891796038       -1.3263635674
 H         -9.3771587747       -2.0936168098        0.5805184728
 H         -8.8997939952       -0.3770253932        2.2888776728
 H         -6.8823301758        1.0265973766        2.0977922734
 H         -2.2848762920       -0.5504628970       -1.9522007900
 H         -1.7258118371       -2.9202602179       -2.3485472573
