  67
  -106.591884585900       0.266799249498064      !
 C          8.8705575975        3.4656406090        0.4016955809
 C          7.7798782278        3.7830584020       -0.3911221878
 C          6.7443575523        2.8801642787       -0.5406296125
 C          6.7943342724        1.6418233620        0.0950199566
 C          5.6765358281        0.7202980448       -0.0538976666
 N          4.4012604093        1.1901684278       -0.1542685553
 C          3.6333117146        0.1358346690       -0.1887289619
 C          2.1889451941        0.1533758984       -0.2541531949
 C          1.5131025880        1.3756311684       -0.3255022836
 C          0.1349656905        1.3641003610       -0.3343995846
 C         -0.5441348227        0.1441942662       -0.2769383975
 C         -2.0070714836        0.0816662331       -0.2346716712
 C         -2.7849759512        0.9491171941       -1.0003108632
 C         -4.1626241050        0.9136908396       -0.9300155621
 C         -4.7972543356        0.0047741101       -0.0870040305
 N         -6.1928942171       -0.0160554774        0.0129086127
 C         -7.0847638571       -0.0621353897       -1.0403304820
 C         -6.8400873246       -0.1589058999       -2.4025937573
 C         -7.9292712247       -0.2183243304       -3.2508298137
 C         -9.2339664011       -0.1915477991       -2.7631781554
 C         -9.4835372149       -0.1196384899       -1.4074038362
 C         -8.4051847029       -0.0587041574       -0.5347992768
 C         -8.2948054528        0.0010221312        0.8958774316
 C         -9.2261473704        0.0518786912        1.9246891479
 C         -8.7712015531        0.1325600810        3.2255466393
 C         -7.4073157865        0.1781054502        3.5057103812
 C         -6.4617737960        0.1284643913        2.4994294849
 C         -6.9125846847        0.0222651210        1.1914743601
 C         -4.0280090415       -0.8774425825        0.6680216879
 C         -2.6511914548       -0.8369764754        0.5933888358
 C          0.2383457062       -1.0137622484       -0.2392034059
 N          1.5525335492       -1.0163306933       -0.2248649023
 O          4.3173140944       -1.0167934070       -0.1274347116
 C          5.6233957098       -0.6654184150       -0.0523766738
 C          6.6251116431       -1.7139303717       -0.0366677332
 C          6.2909637055       -2.9731954364        0.4636252025
 C          7.2296279736       -3.9864852278        0.4816636627
 C          8.5073564654       -3.7613863805       -0.0041633919
 C          8.8391116142       -2.5188891479       -0.5216798499
 C          7.9073581934       -1.4994447385       -0.5436252466
 C          7.8846582009        1.3356913663        0.9068672663
 C          8.9160016797        2.2439301955        1.0540599415
 H          9.6795486464        4.1712932325        0.5189541438
 H          7.7366315540        4.7388360442       -0.8922760372
 H          5.8851751863        3.1175665401       -1.1486100152
 H          2.0827204373        2.2897108131       -0.3545809483
 H         -0.4200088761        2.2910943178       -0.3574334967
 H         -2.3046453153        1.6531481240       -1.6637448694
 H         -4.7557804049        1.6032400744       -1.5117749773
 H         -5.8330435807       -0.1989381721       -2.7896354921
 H         -7.7651624233       -0.2912113690       -4.3157673215
 H        -10.0582974472       -0.2376028986       -3.4590538270
 H        -10.4941841154       -0.1153913420       -1.0279715072
 H        -10.2831495282        0.0339115260        1.7061722451
 H         -9.4785307274        0.1709677185        4.0404773041
 H         -7.0812476192        0.2578070618        4.5322149626
 H         -5.4078211523        0.1837513458        2.7264477456
 H         -4.5182502687       -1.5977415268        1.3056095808
 H         -2.0646501971       -1.5119167701        1.1986089071
 H         -0.2252169138       -1.9919752638       -0.2329793731
 H          5.2931284892       -3.1427089016        0.8387988519
 H          6.9642190054       -4.9560689202        0.8761705860
 H          9.2410588995       -4.5534370084        0.0131645464
 H          9.8296726518       -2.3451975408       -0.9159146429
 H          8.1620862599       -0.5387115686       -0.9644137057
 H          7.9139599328        0.3920308243        1.4310249218
 H          9.7577929433        1.9998479017        1.6857359143
  67
  -106.591818575800       0.248798903513823      !
 C          8.9478149568        2.8468977865       -1.9509891715
 C          9.0096283050        1.4630350034       -1.9151210907
 C          7.9551038207        0.7306166168       -1.4034432573
 C          6.8243470169        1.3817642508       -0.9150571777
 C          5.6871235497        0.6396830350       -0.3878249063
 N          4.4136307035        1.0673921792       -0.6170636671
 C          3.6333441896        0.1725619387       -0.0757504831
 C          2.1873728493        0.2015580200       -0.0868445238
 C          1.5185345040        1.1992321600       -0.8029520324
 C          0.1400459661        1.1961389170       -0.8012939053
 C         -0.5443951121        0.2116332144       -0.0846587699
 C         -2.0079707104        0.1584438192       -0.0522141873
 C         -2.6857764051       -0.1162737290        1.1344560458
 C         -4.0643149208       -0.1598171690        1.1668844765
 C         -4.8004276103        0.0441062665        0.0014365629
 N         -6.1972980474       -0.0135303345        0.0278941726
 C         -7.0559676971        0.9144888960       -0.5299573867
 C         -6.7713299386        2.1085468168       -1.1772161444
 C         -7.8338799847        2.8709008653       -1.6235264293
 C         -9.1526912092        2.4685256546       -1.4253225697
 C         -9.4430749246        1.2966285379       -0.7558808669
 C         -8.3916641911        0.5132608215       -0.2988101201
 C         -8.3269464978       -0.7205491592        0.4331422507
 C         -9.2924127327       -1.5880593320        0.9264013080
 C         -8.8813568251       -2.7309163238        1.5823908834
 C         -7.5274218004       -3.0220769780        1.7318787093
 C         -6.5486938342       -2.1746071252        1.2489158838
 C         -6.9550505317       -1.0090405123        0.6149487023
 C         -4.1291086219        0.3057039597       -1.1911085889
 C         -2.7514544224        0.3747959165       -1.2113576881
 C          0.2305237134       -0.7327985398        0.5942005176
 N          1.5447352287       -0.7458272923        0.5940202665
 O          4.3066745341       -0.8291565424        0.5099066395
 C          5.6188431017       -0.5453457075        0.3287374247
 C          6.6075795437       -1.4380698742        0.9021203269
 C          6.2803045075       -2.7791850728        1.1074382824
 C          7.2065416383       -3.6462379591        1.6537519854
 C          8.4649815920       -3.1882759480        2.0081743789
 C          8.7888195259       -1.8529300675        1.8263618420
 C          7.8692272587       -0.9783728103        1.2810557987
 C          6.7585958992        2.7716468164       -0.9752456459
 C          7.8176652269        3.4983756068       -1.4852337475
 H          9.7760955797        3.4148440414       -2.3481074772
 H          9.8830144257        0.9515348448       -2.2927430619
 H          7.9986742597       -0.3484287906       -1.3916612603
 H          2.0937042757        1.9400655927       -1.3333484333
 H         -0.4114835184        1.9590301616       -1.3321185111
 H         -2.1252257523       -0.2637299067        2.0453991653
 H         -4.5810963875       -0.3349851754        2.0984434396
 H         -5.7545428160        2.4419444060       -1.3186775886
 H         -7.6368887093        3.8014393102       -2.1349875172
 H         -9.9552176864        3.0902441517       -1.7931304702
 H        -10.4646827050        0.9930728632       -0.5849010403
 H        -10.3415527382       -1.3705213571        0.7932687602
 H         -9.6154473635       -3.4170024627        1.9773323730
 H         -7.2353913703       -3.9328103571        2.2334240609
 H         -5.5032867175       -2.4222031848        1.3525214143
 H         -4.6937325614        0.4359531528       -2.1019625031
 H         -2.2410065572        0.5652270885       -2.1440481794
 H         -0.2405681923       -1.5327312183        1.1510678921
 H          5.2976938638       -3.1297464948        0.8299153975
 H          6.9467815468       -4.6839287360        1.8027864940
 H          9.1895890298       -3.8678632579        2.4312949138
 H          9.7635984517       -1.4896410106        2.1168936044
 H          8.1175105326        0.0646208651        1.1580536184
 H          5.8694148879        3.2657670042       -0.6153911292
 H          7.7621940153        4.5764720105       -1.5214656186
  67
  -106.591767464700       0.235699915488587      !
 C          8.9193456264        3.4232069453        0.3714681240
 C          7.8047245958        3.7688948188       -0.3746835704
 C          6.7545499652        2.8801144746       -0.5061943356
 C          6.8138599182        1.6279294204        0.1004824364
 C          5.6830818973        0.7190415798       -0.0276237351
 N          4.4079238321        1.1982625899       -0.0597468957
 C          3.6325555692        0.1492049051       -0.0909187167
 C          2.1868604495        0.1765887625       -0.1085204337
 C          1.5182019700        1.4031799512       -0.1730152383
 C          0.1399364125        1.4005949690       -0.1678783139
 C         -0.5453236613        0.1852230232       -0.0963091907
 C         -2.0092602582        0.1286033324       -0.0701216691
 C         -2.7683557233        0.9612440957       -0.8910325692
 C         -4.1469746504        0.9161169295       -0.8622751216
 C         -4.8005791329        0.0353940029       -0.0038918120
 N         -6.1991752334       -0.0045282730        0.0349474007
 C         -7.0349342612       -0.1303288651       -1.0570010407
 C         -6.7177799861       -0.3002283915       -2.3969889874
 C         -7.7600084426       -0.4341878840       -3.2941944883
 C         -9.0884905833       -0.4083022131       -2.8753501221
 C         -9.4094945165       -0.2626133824       -1.5406077491
 C         -8.3792743720       -0.1273267106       -0.6193933774
 C         -8.3430528466        0.0153193733        0.8092377629
 C         -9.3260600450        0.1030316904        1.7861542176
 C         -8.9390682053        0.2637210171        3.1015136022
 C         -7.5921255226        0.3513187087        3.4465518071
 C         -6.5959094261        0.2667529470        2.4928141018
 C         -6.9782048698        0.0820439120        1.1719095228
 C         -4.0497622315       -0.8021773158        0.8170309211
 C         -2.6711372532       -0.7554340914        0.7804885529
 C          0.2293299742       -0.9770998405       -0.0476225367
 N          1.5437034625       -0.9884551138       -0.0537009426
 O          4.3112167762       -1.0083281304       -0.0922670442
 C          5.6215074199       -0.6657810043       -0.0653167318
 C          6.6183401695       -1.7164488671       -0.1367949724
 C          6.3028014771       -2.9954226308        0.3238053310
 C          7.2375587508       -4.0101906325        0.2544477222
 C          8.4923883380       -3.7667585428       -0.2798546248
 C          8.8047275591       -2.5037156350       -0.7580316534
 C          7.8767421560       -1.4827671926       -0.6929871032
 C          7.9294554276        1.2926293993        0.8651587744
 C          8.9750841559        2.1868930500        0.9949388310
 H          9.7400585460        4.1177240338        0.4741599478
 H          7.7540591737        4.7359468948       -0.8532405680
 H          5.8766703920        3.1399019479       -1.0770135806
 H          2.0936252067        2.3131095608       -0.2146369695
 H         -0.4106065522        2.3301251416       -0.1947959652
 H         -2.2712832849        1.6407939763       -1.5674880977
 H         -4.7278639525        1.5733734236       -1.4918371177
 H         -5.6912494294       -0.3398780506       -2.7289287978
 H         -7.5394384818       -0.5660939270       -4.3431565367
 H         -9.8745083694       -0.5138338815       -3.6080780349
 H        -10.4384341599       -0.2586770059       -1.2140774362
 H        -10.3701754917        0.0512688070        1.5168666956
 H         -9.6874837332        0.3325152230        3.8767706573
 H         -7.3204026425        0.4925651348        4.4822101874
 H         -5.5555940912        0.3538750432        2.7679742426
 H         -4.5546137485       -1.4960587995        1.4722778211
 H         -2.0976394640       -1.3999136410        1.4299128801
 H         -0.2416463896       -1.9513592344       -0.0182585234
 H          5.3227747541       -3.1790799234        0.7375594950
 H          6.9872548528       -4.9954813607        0.6191483810
 H          9.2227923516       -4.5603226456       -0.3311337895
 H          9.7766007866       -2.3147456471       -1.1895482350
 H          8.1156625890       -0.5052682064       -1.0828598417
 H          7.9675261298        0.3365235185        1.3659476999
 H          9.8363655241        1.9204827892        1.5900087887
  67
  -106.591618614900       0.201350538325064      !
 C          8.9286180154        2.8541709562       -1.9750614581
 C          9.0115484970        1.4725238874       -1.9080893826
 C          7.9626663520        0.7347995607       -1.3925421802
 C          6.8161787558        1.3783479846       -0.9314220325
 C          5.6840326190        0.6294734573       -0.4030623751
 N          4.4074044929        1.0354582763       -0.6534188157
 C          3.6333603649        0.1374626086       -0.1084836185
 C          2.1875347498        0.1499957757       -0.1320049221
 C          1.5140479019        1.1564990034       -0.8312553033
 C          0.1357741044        1.1478655277       -0.8284662185
 C         -0.5449682052        0.1458725928       -0.1322354350
 C         -2.0081864408        0.0974001416       -0.0904537184
 C         -2.6775029025       -0.2310877866        1.0876593180
 C         -4.0561327138       -0.2598759545        1.1330054840
 C         -4.8014794312        0.0186485227       -0.0105353688
 N         -6.1991070020       -0.0150724822        0.0297822137
 C         -7.0453940470        0.9654117756       -0.4514018071
 C         -6.7435045005        2.1949967071       -1.0192321438
 C         -7.7953838930        3.0088476765       -1.3942688442
 C         -9.1197110280        2.6210203549       -1.2036732848
 C         -9.4264001626        1.4108564917       -0.6144521812
 C         -8.3860389810        0.5756037739       -0.2294677499
 C         -8.3372565402       -0.7073756531        0.4140677229
 C         -9.3132054290       -1.5901045945        0.8573578010
 C         -8.9163183938       -2.7831093445        1.4273708502
 C         -7.5663824545       -3.1074454348        1.5418489372
 C         -6.5773077905       -2.2457997471        1.1073249095
 C         -6.9692316254       -1.0332008695        0.5583418818
 C         -4.1396016640        0.3325058593       -1.1956185743
 C         -2.7614690652        0.3811559558       -1.2289628859
 C          0.2347589357       -0.8125595167        0.5215415870
 N          1.5490572981       -0.8170724838        0.5247193505
 O          4.3138120045       -0.8457905907        0.5000322594
 C          5.6238409972       -0.5449527798        0.3315389364
 C          6.6185175552       -1.4103153552        0.9356335619
 C          6.3096652435       -2.7521066754        1.1641378937
 C          7.2419491204       -3.5927460133        1.7405625792
 C          8.4878650225       -3.1073090682        2.1029366914
 C          8.7928536248       -1.7705787111        1.8985461576
 C          7.8671219946       -0.9223154606        1.3227671564
 C          6.7295468854        2.7654098078       -1.0226292828
 C          7.7830356514        3.4975799411       -1.5365513975
 H          9.7525764844        3.4263310936       -2.3753086302
 H          9.8973877734        0.9668302122       -2.2637961699
 H          8.0228468550       -0.3429599890       -1.3567966741
 H          2.0854531938        1.9106494348       -1.3466283840
 H         -0.4183222035        1.9215693427       -1.3404990352
 H         -2.1101147916       -0.4320849339        1.9841768672
 H         -4.5655975835       -0.4798089930        2.0590412894
 H         -5.7213627581        2.5150931334       -1.1536500458
 H         -7.5856049515        3.9691056940       -1.8419199760
 H         -9.9134402480        3.2842956865       -1.5133410388
 H        -10.4520325054        1.1170894530       -0.4497988511
 H        -10.3593468594       -1.3454856303        0.7520358905
 H         -9.6588266518       -3.4824308415        1.7817392358
 H         -7.2861204698       -4.0556482067        1.9763095810
 H         -5.5351422429       -2.5167881483        1.1826048931
 H         -4.7130830568        0.5217483090       -2.0905237119
 H         -2.2592726371        0.6114052414       -2.1570271988
 H         -0.2317085623       -1.6296954098        1.0570063841
 H          5.3367644904       -3.1240250061        0.8803335149
 H          6.9966609976       -4.6313148241        1.9072504406
 H          9.2171890606       -3.7663650047        2.5498073243
 H          9.7573955623       -1.3855617238        2.1950370505
 H          8.0998907676        0.1221651632        1.1828966480
 H          5.8287886464        3.2531906999       -0.6836318783
 H          7.7112682764        4.5737101420       -1.5967184285
  67
  -106.589508974100       2.159876957458141E-002 !
 C          8.8503622915        3.4714060202        0.4560527470
 C          7.7845559136        3.7777632104       -0.3739144998
 C          6.7513941425        2.8746496754       -0.5390883862
 C          6.7801003930        1.6468723550        0.1175288628
 C          5.6676710307        0.7215261920       -0.0493651571
 N          4.3917582407        1.1840308325       -0.1700353174
 C          3.6305632526        0.1249770217       -0.2155697301
 C          2.1870727725        0.1344319971       -0.2991195439
 C          1.5061558087        1.3527044413       -0.3878094309
 C          0.1282480370        1.3346090733       -0.4059027897
 C         -0.5459683391        0.1122587565       -0.3410377111
 C         -2.0086546286        0.0464553515       -0.2959747989
 C         -2.7910477626        0.9114625609       -1.0598911895
 C         -4.1680708915        0.8821764301       -0.9756880880
 C         -4.7980375109       -0.0186860850       -0.1205737823
 N         -6.1918077211       -0.0261775286        0.0030516852
 C         -7.1044472849       -0.0567063132       -1.0328642490
 C         -6.8881532837       -0.1547930629       -2.3998878219
 C         -7.9945622854       -0.1948652102       -3.2268202994
 C         -9.2889730202       -0.1483216537       -2.7138373595
 C         -9.5108028706       -0.0756604023       -1.3532274271
 C         -8.4147026594       -0.0336950707       -0.5018876943
 C         -8.2759648993        0.0227926054        0.9264220119
 C         -9.1867719252        0.0872743176        1.9727135213
 C         -8.7061068025        0.1607485480        3.2647154156
 C         -7.3365973138        0.1864652555        3.5186993714
 C         -6.4112391805        0.1229544653        2.4945684640
 C         -6.8882344136        0.0229683420        1.1954151133
 C         -4.0246871807       -0.9033935434        0.6274845672
 C         -2.6485040405       -0.8683050402        0.5397618779
 C          0.2416905545       -1.0417666810       -0.2911536088
 N          1.5557675591       -1.0379966627       -0.2668252842
 O          4.3202909606       -1.0236076863       -0.1432979061
 C          5.6229685371       -0.6644425048       -0.0481416896
 C          6.6324808471       -1.7048992030       -0.0202012111
 C          6.2983445448       -2.9722535492        0.4592005144
 C          7.2450292741       -3.9778552993        0.4866975906
 C          8.5311595572       -3.7368987565        0.0316927138
 C          8.8637485880       -2.4858797440       -0.4640900164
 C          7.9239908880       -1.4741443595       -0.4957940431
 C          7.8453531146        1.3518223750        0.9659432333
 C          8.8735637587        2.2605772554        1.1295565950
 H          9.6576418389        4.1771446647        0.5851243577
 H          7.7584827981        4.7254316546       -0.8915844480
 H          5.9114240681        3.1039608851       -1.1762329351
 H          2.0716219261        2.2691817779       -0.4210976380
 H         -0.4305861291        2.2588762066       -0.4399961238
 H         -2.3148187343        1.6103344025       -1.7316148685
 H         -4.7638002340        1.5722932618       -1.5541151897
 H         -5.8897888473       -0.2105278892       -2.8068608976
 H         -7.8524160546       -0.2675220939       -4.2949447902
 H        -10.1273225174       -0.1787016766       -3.3936068645
 H        -10.5135628948       -0.0554798514       -0.9539513014
 H        -10.2478501357        0.0850016379        1.7742299906
 H         -9.3970792543        0.2094114181        4.0929715935
 H         -6.9897059413        0.2619788245        4.5386826411
 H         -5.3525752136        0.1635704390        2.7018558811
 H         -4.5112992646       -1.6202551860        1.2716133815
 H         -2.0590247796       -1.5441138636        1.1410993712
 H         -0.2171610262       -2.0221558607       -0.2788645669
 H          5.2940484761       -3.1540560006        0.8110256406
 H          6.9793310695       -4.9540028415        0.8649539423
 H          9.2709623119       -4.5230625971        0.0564256973
 H          9.8611678998       -2.2994334976       -0.8340597579
 H          8.1798817595       -0.5069610089       -0.9003847958
 H          7.8569595984        0.4160263505        1.5051005401
 H          9.6954080181        2.0254249047        1.7900708080
  67
  -106.588659735800       8.793182986642917E-003 !
 C          8.7929933236        2.9758542543        1.9190543788
 C          8.9425192256        2.3697739498        0.6820074834
 C          7.9322692466        1.5808048249        0.1647876010
 C          6.7582609956        1.3866831201        0.8892877176
 C          5.6632540070        0.5774709500        0.3731445264
 N          4.3707083947        0.9105790638        0.6468187560
 C          3.6329612698        0.0477878157        0.0146640316
 C          2.1876206986       -0.0242259956       -0.0074628028
 C          1.5401911172       -1.0983502124       -0.6268546051
 C          0.1610443765       -1.1265864503       -0.6279683685
 C         -0.5474027032       -0.0887762714       -0.0209020193
 C         -2.0115742194       -0.0619475617        0.0016488267
 C         -2.7031553787        1.1270593943       -0.2254601400
 C         -4.0822460543        1.1549435939       -0.2153244492
 C         -4.8057423107       -0.0060458183        0.0494558142
 N         -6.2037376549        0.0221514415        0.0706323148
 C         -7.0407420574       -0.8629589339       -0.5815941786
 C         -6.7283997439       -1.9235745746       -1.4199519821
 C         -7.7730253710       -2.6421283232       -1.9695339575
 C         -9.1007597846       -2.3139358927       -1.7053572150
 C         -9.4182938428       -1.2423931418       -0.8950238923
 C         -8.3853896697       -0.5056669184       -0.3308204936
 C         -8.3490538046        0.6514627559        0.5189336839
 C         -9.3339101397        1.4359857088        1.1043411153
 C         -8.9488130733        2.4912972005        1.9065988024
 C         -7.6017143376        2.7563255910        2.1423466893
 C         -6.6040099841        1.9895867185        1.5712422038
 C         -6.9841533027        0.9452944689        0.7403562653
 C         -4.1211593135       -1.1949298028        0.2915175097
 C         -2.7422475471       -1.2217824834        0.2545634276
 C          0.2073829874        0.9284176701        0.5731844799
 N          1.5194283705        0.9636379527        0.5843809849
 O          4.3579096367       -0.8615127518       -0.6743846819
 C          5.6572023681       -0.5404139582       -0.4451586156
 C          6.6898479672       -1.3853543110       -1.0140392877
 C          6.4447325336       -2.0661487316       -2.2071508976
 C          7.4150492592       -2.8812991924       -2.7571697743
 C          8.6368941826       -3.0344245046       -2.1229540183
 C          8.8803448941       -2.3754505428       -0.9278586198
 C          7.9162233555       -1.5580804341       -0.3710202372
 C          6.6032063327        2.0191064031        2.1208579221
 C          7.6184847554        2.8038135178        2.6333599736
 H          9.5872967606        3.5879153901        2.3202843741
 H          9.8501452290        2.5167643654        0.1147706515
 H          8.0450676056        1.1247085835       -0.8076947890
 H          2.1178165075       -1.8815965228       -1.0923761659
 H         -0.3696102370       -1.9342524066       -1.1121518286
 H         -2.1518968578        2.0293376619       -0.4445991319
 H         -4.6093587562        2.0722030249       -0.4297889569
 H         -5.7039746154       -2.1742680228       -1.6497369291
 H         -7.5546682643       -3.4746131900       -2.6220616160
 H         -9.8886461190       -2.9024338402       -2.1512207253
 H        -10.4468089639       -0.9758997341       -0.7041878138
 H        -10.3776932916        1.2182889970        0.9355846697
 H         -9.6982713502        3.1165326936        2.3683021911
 H         -7.3303809399        3.5776695327        2.7889125168
 H         -5.5641874564        2.1921715532        1.7783409394
 H         -4.6767792648       -2.0905615157        0.5251770454
 H         -2.2219684354       -2.1463249025        0.4577662258
 H         -0.2822774581        1.7485009594        1.0824532720
 H          5.4921574491       -1.9413840693       -2.7002430896
 H          7.2182934023       -3.3985640061       -3.6847058689
 H          9.3956011318       -3.6694991960       -2.5551539084
 H          9.8267772490       -2.5039466741       -0.4238661548
 H          8.1002641656       -1.0601604608        0.5685741461
 H          5.6780681989        1.8837592038        2.6588112253
 H          7.4941216264        3.2852435706        3.5922330036
  67
  -106.588650777800       8.710223505139440E-003 !
 C          8.8124721074        3.1528559431        1.5856959160
 C          8.9317904778        2.4492497186        0.3978573667
 C          7.9162222381        1.6105142723       -0.0209709005
 C          6.7675130316        1.4641320761        0.7538423615
 C          5.6676228726        0.6076062764        0.3332566491
 N          4.3782191013        0.9540929843        0.6039223336
 C          3.6348725455        0.0444376630        0.0481652684
 C          2.1898755044       -0.0295650741        0.0394509964
 C          1.5382603603       -1.0584494818       -0.6489256225
 C          0.1594433364       -1.0808525138       -0.6536797983
 C         -0.5476118700       -0.0885729677        0.0280779177
 C         -2.0112541313       -0.0584944967        0.0456261985
 C         -2.6995445609        1.1527355341       -0.0211931064
 C         -4.0786559277        1.1840117929       -0.0195314962
 C         -4.8072141317       -0.0002824224        0.0661569628
 N         -6.2055475009        0.0273885962        0.0692566482
 C         -7.0299143536       -0.7419468474       -0.7288907143
 C         -6.7006881131       -1.6514625411       -1.7237073447
 C         -7.7342567324       -2.2715200353       -2.3994162268
 C         -9.0668736423       -1.9923115307       -2.1053133016
 C         -9.4006976833       -1.0688366578       -1.1349342662
 C         -8.3792297908       -0.4326479711       -0.4423440059
 C         -8.3587626114        0.5706525451        0.5851465836
 C         -9.3540315335        1.2459296042        1.2791598075
 C         -8.9830063327        2.1570622808        2.2476023770
 C         -7.6398097829        2.3857855642        2.5383271364
 C         -6.6318256948        1.7261261670        1.8613145783
 C         -6.9979933937        0.8284768706        0.8686618266
 C         -4.1276126128       -1.2136971204        0.1462240701
 C         -2.7486096774       -1.2394278648        0.1276465500
 C          0.2121680544        0.8779351276        0.6971736515
 N          1.5242529082        0.9131274011        0.7036056953
 O          4.3539011439       -0.9102223389       -0.5837928442
 C          5.6547845520       -0.5696170769       -0.3975822785
 C          6.6822462024       -1.4592677005       -0.9031457520
 C          6.4185613869       -2.2562265505       -2.0178636956
 C          7.3821176359       -3.1197292000       -2.5019989207
 C          8.6163657396       -3.2053234700       -1.8791583515
 C          8.8790828307       -2.4292226475       -0.7609514277
 C          7.9215242991       -1.5635220615       -0.2698444948
 C          6.6422856204        2.1930699785        1.9342518656
 C          7.6630213001        3.0273969606        2.3486359756
 H          9.6106216327        3.8042326430        1.9099686744
 H          9.8194015522        2.5590115422       -0.2080647716
 H          8.0043718809        1.0776562481       -0.9563480092
 H          2.1128187753       -1.8087761125       -1.1691535286
 H         -0.3712742090       -1.8474384304       -1.2003267274
 H         -2.1463203775        2.0757265658       -0.1088528733
 H         -4.6017341676        2.1245944207       -0.1043056298
 H         -5.6716551197       -1.8609459408       -1.9735708499
 H         -7.5033357128       -2.9857690496       -3.1759294672
 H         -9.8457707801       -2.5004554395       -2.6538216344
 H        -10.4328998352       -0.8386779259       -0.9188045979
 H        -10.3948495848        1.0549420476        1.0652138416
 H         -9.7408533457        2.6950919382        2.7972422393
 H         -7.3800161460        3.0921181735        3.3128908952
 H         -5.5950492611        1.8970165219        2.1085447938
 H         -4.6883618059       -2.1315346159        0.2399128183
 H         -2.2346985363       -2.1857907620        0.2100337717
 H         -0.2724960028        1.6560793118        1.2723497517
 H          5.4560702454       -2.1848831124       -2.5021836899
 H          7.1700774556       -3.7282483663       -3.3687595554
 H          9.3695735191       -3.8790007006       -2.2595948611
 H          9.8355465781       -2.5037295658       -0.2650784116
 H          8.1210978586       -0.9737663556        0.6115660694
 H          5.7359590801        2.0928263326        2.5105139846
 H          7.5623522991        3.5842646851        3.2686688890
  67
  -106.588599389200       8.249217108098495E-003 !
 C          8.8275277482        3.5416965019       -0.2502046779
 C          8.9491923195        2.3290160131       -0.9095988561
 C          7.9286034215        1.3986646261       -0.8523776271
 C          6.7724370056        1.6744340170       -0.1253281238
 C          5.6693598736        0.7261377449       -0.0579738401
 N          4.3798111807        1.1642485659       -0.0226986206
 C          3.6354755810        0.0989266032       -0.0339063193
 C          2.1902886684        0.0296569893       -0.0121850550
 C          1.5422458624       -1.2085901671       -0.0729687687
 C          0.1636674958       -1.2346722706       -0.0607823210
 C         -0.5473609858       -0.0355571757        0.0170795819
 C         -2.0116091766       -0.0090993025        0.0336386793
 C         -2.7166376073        0.9923912507       -0.6332613710
 C         -4.0961200637        1.0151961602       -0.6206432884
 C         -4.8083234870        0.0294705385        0.0590151888
 N         -6.2071126382        0.0418941856        0.0653825279
 C         -7.0193743799        0.1671843034       -1.0453880409
 C         -6.6764374146        0.2725949053       -2.3857771896
 C         -7.7006132807        0.3576272184       -3.3095290884
 C         -9.0375600277        0.3297011195       -2.9189299834
 C         -9.3852463624        0.1980762550       -1.5894698761
 C         -8.3733652873        0.1109287044       -0.6425764633
 C         -8.3688803171       -0.0524690643        0.7842070012
 C         -9.3746901261       -0.1545140607        1.7360725780
 C         -9.0183756497       -0.2855364803        3.0633304003
 C         -7.6792204620       -0.2971701648        3.4470775796
 C         -6.6611024818       -0.1967649750        2.5183777245
 C         -7.0123131850       -0.0935987386        1.1799175433
 C         -4.1118680079       -0.9727156947        0.7304541927
 C         -2.7326252465       -0.9871978387        0.7180484916
 C          0.2088515386        1.1401182975        0.0846256450
 N          1.5210332505        1.1777464178        0.0686963345
 O          4.3539855527       -1.0457167999       -0.0692272207
 C          5.6554588310       -0.6594458262       -0.0708554070
 C          6.6806141987       -1.6838735501       -0.0233783561
 C          6.4186497499       -2.9480359076       -0.5532001160
 C          7.3785312693       -3.9399866247       -0.4992380057
 C          8.6075865456       -3.6880878860        0.0877896778
 C          8.8685615096       -2.4397948149        0.6311743220
 C          7.9146310957       -1.4423491775        0.5821272650
 C          6.6448308691        2.9054120913        0.5139555188
 C          7.6706393662        3.8295931778        0.4554207138
 H          9.6299731125        4.2632792035       -0.2941661008
 H          9.8427332419        2.1090654222       -1.4755360303
 H          8.0191933025        0.4614646182       -1.3815846475
 H          2.1192386304       -2.1178886644       -0.1341995478
 H         -0.3639482661       -2.1751531905       -0.1329779871
 H         -2.1768576888        1.7516919443       -1.1790192831
 H         -4.6314317927        1.8045395555       -1.1265078529
 H         -5.6446195668        0.2758958989       -2.7024269286
 H         -7.4585442355        0.4440098208       -4.3584963712
 H         -9.8087157230        0.4020100388       -3.6712123328
 H        -10.4208972798        0.1585481776       -1.2872878777
 H        -10.4121613393       -0.1274330807        1.4393967617
 H         -9.7844648908       -0.3704527937        3.8191769118
 H         -7.4307057287       -0.3828455609        4.4945985346
 H         -5.6274929280       -0.1867795755        2.8296322143
 H         -4.6594957842       -1.7465303230        1.2470859641
 H         -2.2062459804       -1.7605280085        1.2578750226
 H         -0.2782228605        2.1023514996        0.1751493870
 H          5.4604420615       -3.1398637877       -1.0125560638
 H          7.1675188729       -4.9137369265       -0.9162605283
 H          9.3580265700       -4.4634379869        0.1275053031
 H          9.8208593315       -2.2443701986        1.1015328890
 H          8.1127409923       -0.4772804298        1.0225957506
 H          5.7331213079        3.1182864277        1.0497828365
 H          7.5682915219        4.7792146307        0.9599980260
