105
 energy: -161.047648082569 gnorm: 0.000034501002 xtb: 6.7.1 (edcfbbe)
C            1.99169252913613       -9.30647020404092       -2.13004821456651
C            2.60785010712318       -9.49040552717337       -0.90310648661378
C            3.08899492652257       -8.40799288899500       -0.19233057142476
C            2.96549068784806       -7.11873075117731       -0.70852298008479
N            3.46338366683418       -6.01922886488289        0.00367450775517
C            4.66880705277728       -6.14293324448892        0.70776746691241
C            4.82811564941040       -5.52889233202248        1.94956234875019
C            6.01725407625041       -5.65692250721674        2.64056843962486
C            7.05900043028599       -6.40231115327106        2.11302340511752
C            6.90359214344195       -7.01809765289273        0.88195874575053
C            5.72126843562461       -6.88916780195662        0.17924011221285
C            2.76792452246121       -4.81256829266548        0.00884730112826
C            1.36973418834402       -4.79796555888434       -0.01532505276913
C            0.68471590433531       -3.60463303382069       -0.01132254291973
C            1.37247999502345       -2.39111214554246        0.01509515416112
C            0.64506500709933       -1.12747784508106        0.01368318415848
N           -0.68504550126236       -1.17225441050558        0.03654376256869
C           -1.30715181837059        0.00467777739510        0.03518436336841
C           -2.76414221101369        0.00744471839216        0.08492573631336
C           -3.47263343199987        1.20852900632608        0.04117426279367
C           -4.84750129366738        1.21325945399472        0.09399519075977
C           -5.55739103417119        0.01249121565261        0.19613768772595
N           -6.94839913971871        0.01539621328662        0.25497167444425
C           -7.62785228757714        1.06045199740891        0.89616593685480
C           -8.82399971464893        1.54878298606050        0.37212590921960
C           -9.49758098582496        2.57085560608306        1.01242884066677
C           -8.98907225888940        3.12577293385242        2.17532873694173
C           -7.79938419673404        2.64575427422717        2.69817003728703
C           -7.12272121297486        1.61833850450075        2.07001542605127
C           -7.68396610437337       -1.02871730594543       -0.32261620671309
C           -8.83069159425345       -1.51371046151953        0.30480344722194
C           -9.55976643908162       -2.53520668051253       -0.27252801275683
C           -9.15605834978104       -3.09280484111481       -1.47459109814098
C           -8.01567574595087       -2.61610475352963       -2.10023320354772
C           -7.28453838185829       -1.58933055761455       -1.53524384286938
C           -4.84614507220588       -1.19101137266226        0.23940415584807
C           -3.47144195427228       -1.19115543890627        0.18303692696891
N           -0.68139918734471        1.17886951622137       -0.00805303637540
C            0.64855703610719        1.12895647510420       -0.03229547345004
C            1.38025998681309        2.38891776412323       -0.08536695957098
C            0.69704651706489        3.60493162195850       -0.11593780848127
C            1.38642415050295        4.79444486274438       -0.17179272042308
C            2.78465537384930        4.80273428996208       -0.19845102523758
N            3.48457056720743        6.00530425076852       -0.25716582632584
C            2.96540424940172        7.09114357329281       -0.97514855493093
C            2.30157014905004        6.88695984903183       -2.18433186879685
C            1.79535720991618        7.96159841822939       -2.88919944850309
C            1.94910281809381        9.25170911247305       -2.40846559337649
C            2.61219283088128        9.45983118813082       -1.21019026795888
C            3.11463168952481        8.39103665071303       -0.49356214712875
C            4.71637326378283        6.13843326668393        0.39798136364723
C            5.75183490870502        6.86584519290180       -0.18729311550709
C            6.96059351110942        7.00398242029733        0.46705193557143
C            7.15938183957928        6.41609568038179        1.70549248045730
C            6.13453890785089        5.68955339091686        2.28942298487219
C            4.91942418735555        5.55264370635840        1.64701467874021
C            3.46864254311198        3.58335886362574       -0.16582891362078
C            2.77519702629682        2.39631561686879       -0.11048971425620
N            1.35283028291323       -0.00045642837398       -0.01181692762363
C            2.76733782073752       -2.40473399888393        0.03947001803464
C            3.45640945341885       -3.59566366135910        0.03749780045368
C            2.34883920559300       -6.93895677349881       -1.94623076106601
C            1.86350323955389       -8.02693089974568       -2.64529158944076
H            1.61461384502663      -10.15447503910001       -2.68123395024196
H            2.70803689860658      -10.48400061930709       -0.49162801791978
H            3.56172349822414       -8.55254188581058        0.76815712218054
H            4.01299949380863       -4.95634604550983        2.36728047336173
H            6.12747916421603       -5.17830450065215        3.60251413358514
H            7.98535613372527       -6.50307847388759        2.65783332249368
H            7.71219297697134       -7.59727174426697        0.46087940596326
H            5.60496717005570       -7.36302769768233       -0.78452142782514
H            0.83109230502682       -5.73429262385633       -0.02804913905012
H           -0.39359247955230       -3.58891673001986       -0.02188777448379
H           -2.92210632274149        2.13193495795072       -0.04446110068036
H           -5.38991294175443        2.14635467348591        0.04839431828356
H           -9.21772061820261        1.12273107214301       -0.53912822681885
H          -10.42229888975784        2.94171519744323        0.59537574645312
H           -9.51664785514506        3.92633881357717        2.67117655761226
H           -7.39880113372366        3.06828579478516        3.60786769947781
H           -6.20101126444325        1.23783846904730        2.48517563314630
H           -9.14220585320914       -1.08574418586868        1.24646256643730
H          -10.44510546795951       -2.90361154574043        0.22449006655761
H           -9.72659440179516       -3.89295439169465       -1.92108646346128
H           -7.69704590359017       -3.04083801664514       -3.04077939678031
H           -6.40172397471768       -1.21148514216883       -2.02977603004706
H           -5.38646041689312       -2.12217495422268        0.32849690969982
H           -2.91911370286153       -2.11645750894480        0.22609687306114
H           -0.38096520051318        3.59440685520088       -0.08638881004576
H            0.85152943474045        5.73288967357756       -0.18639964059381
H            2.19056381197129        5.88272413761642       -2.56628502808640
H            1.28506927326274        7.79045685479886       -3.82561756650876
H            1.55545556841724       10.08915198420616       -2.96419435978386
H            2.73273504544860       10.46189323117529       -0.82557981582282
H            3.62411902103928        8.55459257289342        0.44482956743508
H            5.60153669499571        7.31779494994970       -1.15685909573921
H            7.75563373096891        7.56828713516976        0.00223486315956
H            8.10625614040246        6.52386756588432        2.21236826491846
H            6.27868239464075        5.23281301942982        3.25749993842529
H            4.11778715148227        4.99489874908677        2.10853989712306
H            4.54850972948859        3.58149686409771       -0.19528696422545
H            3.29848889618571        1.45344705285893       -0.09582962504244
H            3.29445948675546       -1.46395750694936        0.05147789339890
H            4.53663231372500       -3.59904194811044        0.04749148552969
H            2.25796715642229       -5.94313635906916       -2.35463133097442
H            1.38992991621275       -7.87473271454470       -3.60400503207847
