105
 energy: -160.971981443328 gnorm: 0.000100495808 xtb: 6.7.1 (edcfbbe)
C           -5.47956173977484        7.84175518721177        1.88944719222933
C           -5.08642616361871        8.44623209240374        0.70655614653378
C           -3.91853616137148        8.06052908981151        0.07788967823104
C           -3.11911950292911        7.06203182500110        0.63368458372848
N           -1.93033816236561        6.67286052957361        0.00390072444259
C           -1.13119746052862        7.63606894657992       -0.62466593062254
C           -0.47593443736647        7.34007286204975       -1.81981896855557
C            0.31123889622828        8.29358646703133       -2.43528156174720
C            0.45186287122271        9.55419484558757       -1.87807069408573
C           -0.20058710239341        9.85433643543912       -0.69341700075928
C           -0.98393994143627        8.90533910990518       -0.06592950798628
C           -1.54380552192644        5.33311259778082        0.00288978538269
C           -2.50126297761055        4.31774540842612       -0.08187765664561
C           -2.11718429817279        2.99625943309177       -0.08077847534557
C           -0.76894115426401        2.64873213266859        0.00083657600761
C           -0.36346974357225        1.24557490483208       -0.00031630214529
N           -1.30524929699055        0.32263300825399       -0.07876826724738
C           -0.90600718707428       -0.98821589188705       -0.06308978217403
C           -1.90210371764993       -2.01403651743814       -0.12248087003091
C           -1.53942645595219       -3.37257486566602       -0.13277926141201
C           -2.49558773806063       -4.35395292906515       -0.18956034454527
C           -3.85513445220585       -4.01960790833156       -0.24205530172966
N           -4.83109755713500       -5.02362631386985       -0.30424145754828
C           -4.61027547139762       -6.15240635999007       -1.09345238411161
C           -5.07277119219254       -7.40638610601406       -0.68774845879254
C           -4.84426158372402       -8.51892897002010       -1.47242485364872
C           -4.14922228752321       -8.40657798848220       -2.66625700298251
C           -3.68260869555944       -7.16579719124292       -3.07097890146610
C           -3.90950411258531       -6.04568178611635       -2.29689841701237
C           -6.01366590502946       -4.88334989073884        0.42187919536385
C           -7.22485507419015       -5.35207801793277       -0.09228860280210
C           -8.39116746048089       -5.20383587178870        0.63117780589227
C           -8.37570602373482       -4.58382872867462        1.87064389129348
C           -7.17777830143530       -4.11124273208253        2.38322982952422
C           -6.00463984756555       -4.25829354783137        1.67087922384566
C           -4.22455282958982       -2.66931394072509       -0.23253250594783
C           -3.26854586673344       -1.68688302433206       -0.17210140053831
N            0.37646366388918       -1.31215872021156       -0.00283693934938
C            1.28802670845061       -0.35369539933314        0.05878596995764
C            2.67805283001584       -0.68893667134064        0.11719101914029
C            3.09764180011812       -2.03102412673375        0.12411778612123
C            4.43030595156797       -2.34953385389992        0.18048127418695
C            5.40070463841152       -1.34047886311751        0.23608145407294
N            6.76221849422797       -1.66751138811547        0.29851948511168
C            7.17846718496075       -2.74120651518485        1.08574847543591
C            6.52774596028967       -3.02889339264509        2.28766194374418
C            6.93432935915331       -4.09843185771635        3.05974667945894
C            7.99306763488854       -4.89595441139021        2.65466862143924
C            8.64198452473163       -4.61611083234810        1.46238986097799
C            8.24070056011080       -3.55220475742918        0.67960761534681
C            7.68728510571194       -0.91484360637687       -0.42486624731464
C            8.96086784142602       -0.66438487192104        0.09121501433357
C            9.86801198739936        0.08600348028673       -0.62966231734683
C            9.52478719168260        0.60441683493316       -1.86835605646395
C            8.26028047352567        0.36452354285173       -2.38273388848513
C            7.34678811939255       -0.38859344109746       -1.67303282893789
C            4.99120391485532       -0.00176241253689        0.22964271161305
C            3.65815804990305        0.31773126152304        0.16945960708181
N            0.92561244408082        0.96777344305124        0.07707504085139
C            0.18670363748342        3.66122247484751        0.08347066614682
C           -0.19249054783695        4.98407323081018        0.08658088850927
C           -3.51678566750140        6.45964167254466        1.82716360563760
C           -4.69037895605601        6.84709933151033        2.44374208494771
H           -6.39442669396931        8.14387593029251        2.37604861766609
H           -5.69811841710061        9.21893127181548        0.26462051120319
H           -3.61884712956493        8.52613726322065       -0.84960290667122
H           -0.59316327756310        6.36134939069812       -2.26136031762271
H            0.81157243206419        8.05271410683179       -3.36161927687401
H            1.06545283023995       10.29758284784718       -2.36378826382210
H           -0.09241175217278       10.83286051711626       -0.24920398868955
H           -1.48388474858087        9.13811193384167        0.86289866575638
H           -3.54628278088612        4.58074958812144       -0.15785019483340
H           -2.85200495721251        2.20971765348688       -0.15400140564532
H           -0.49187748295154       -3.62525965035159       -0.08461602492308
H           -2.21039337012727       -5.39639036644455       -0.18305052563062
H           -5.60050914649038       -7.49991735914713        0.25010173124116
H           -5.20367513599972       -9.48338428555301       -1.14492188707894
H           -3.97134124097683       -9.27954073604346       -3.27551840436015
H           -3.14370478705305       -7.06840766300204       -4.00182171702068
H           -3.55493502624136       -5.07781930811924       -2.61881774816857
H           -7.24281546530280       -5.82112884510479       -1.06515684350992
H           -9.32156838675639       -5.56709470612971        0.22006907858639
H           -9.29040777373130       -4.46858487186231        2.43185210694013
H           -7.15588622633707       -3.63066647997010        3.35016695099710
H           -5.07024650817709       -3.89958487256762        2.07630552013500
H           -5.27244488043092       -2.40991977673598       -0.28547019774374
H           -3.54808884972374       -0.64499837729813       -0.17283506152282
H            2.34737844208273       -2.80438644784340        0.07376983098080
H            4.74642015994661       -3.38299494367666        0.17151040569109
H            5.70987021737639       -2.40176621930703        2.60997906498081
H            6.42562720758656       -4.30672608882153        3.98937309465415
H            8.30909676411811       -5.73002338299319        3.26241467397771
H            9.46218456828613       -5.23772747109530        1.13455900322398
H            8.73789335117939       -3.34663956461418       -0.25706285538622
H            9.22580775905616       -1.05327473519025        1.06351487694273
H           10.84803086137964        0.27558581110745       -0.21706761664724
H           10.23676947185968        1.19204304586942       -2.42754269891935
H            7.98583257989652        0.76111153091209       -3.34906441122085
H            6.36577165746118       -0.58404167485971       -2.07989026030777
H            5.73818118192247        0.77743262443175        0.28472424852703
H            3.33754757864143        1.34771078078264        0.17260457780131
H            1.22766798398108        3.38714123797641        0.15588745381833
H            0.55165906901605        5.76340689058927        0.16330290021859
H           -2.89722232127166        5.69176287764427        2.26659712951202
H           -4.98612326149383        6.37443205584343        3.36871602499711
