105
 energy: -160.971974685903 gnorm: 0.000167727829 xtb: 6.7.1 (edcfbbe)
C            2.24429423910648       -9.21580778581081       -2.13470363742016
C            2.93101543595491       -9.39831067433793       -0.94474032541982
C            3.41369440988892       -8.31310110132944       -0.24117337333360
C            3.22017789056748       -7.01758504078254       -0.72622654491722
N            3.69922682585729       -5.91471372382874       -0.01934379406939
C            4.90222462728594       -5.98763633472443        0.68303421410456
C            5.05924575234734       -5.29718970446773        1.88695016280789
C            6.25429550145001       -5.36177497958419        2.57471122038099
C            7.30935631611941       -6.11366568344955        2.08219572387345
C            7.15985902915501       -6.80016192683996        0.88750242365821
C            5.97101430505663       -6.73872015492885        0.18853342271290
C            2.96421730152474       -4.72146810590251       -0.01355275146906
C            1.56726808232372       -4.74800717350795        0.07565013853757
C            0.84802937775212       -3.57958834215506        0.07975601868093
C            1.49647339555645       -2.33459995416939        0.00005511064281
C            0.74473044604523       -1.11699070827007        0.00978443155235
N           -0.62076428548372       -1.18437542789020        0.10633835065641
C           -1.28866067337693       -0.04489821319102        0.08719267478614
C           -2.74708196175224       -0.09712808887360        0.14524847920724
C           -3.49994277086258        1.07572552315293        0.09315849148198
C           -4.87442250309438        1.02893697319359        0.14182611304640
C           -5.53767930534654       -0.19722900555963        0.25028551060334
N           -6.92981246909659       -0.24702754031381        0.30244710011365
C           -7.64797389013752        0.76771654011005        0.94796964323336
C           -8.86203717609755        1.21362719862895        0.42638164053041
C           -9.57120475661884        2.20919847309633        1.06972856124177
C           -9.08179256786967        2.77950665306836        2.23350022111821
C           -7.87470407722053        2.34185514979918        2.75389849802917
C           -7.16172805033781        1.34150931386244        2.12248710518448
C           -7.62018568884025       -1.31207996893983       -0.29007028081661
C           -8.75748520033349       -1.84128672616452        0.31932215291519
C           -9.44035699375267       -2.88633155964855       -0.27187255882702
C           -8.99980939099203       -3.42391341320893       -1.47024117500061
C           -7.86873686837025       -2.90352890971125       -2.07790816689715
C           -7.18329851392036       -1.85346463025759       -1.49888710263377
C           -4.78211138502787       -1.37247080169334        0.30529577753986
C           -3.40804769489460       -1.32072577886882        0.25008061560953
N           -0.70690216057642        1.13942648136638        0.02964017339871
C            0.66089806065894        1.16730075776262       -0.05191710636930
C            1.32234024617430        2.43455703409572       -0.11803782771459
C            0.58541642609123        3.63158665804527       -0.08918132497239
C            1.21803922986428        4.84779468390911       -0.14595990297645
C            2.61307684178544        4.91880911893520       -0.24038294698642
N            3.25940186410144        6.16087456172068       -0.30069813555549
C            2.69802084229938        7.19615250157250       -1.04826773227503
C            2.01482035609502        6.91985407632217       -2.23473202867826
C            1.45006914094304        7.94480554140514       -2.96674255982357
C            1.55693482439913        9.25803976250199       -2.53648256394218
C            2.23321661763483        9.53841140240679       -1.35964985510034
C            2.79754095617354        8.52088859491225       -0.61675495727772
C            4.45737568477558        6.35022245527303        0.38855557949605
C            5.46617553083381        7.15528746839775       -0.14542486845843
C            6.65106321154223        7.33186069465835        0.54056624573750
C            6.85625130791219        6.70872324088469        1.76142984680100
C            5.86104780103410        5.90403381593751        2.29351584388002
C            4.67024862890265        5.72439564882261        1.61891125796088
C            3.35435847831379        3.73033769930681       -0.27293241243943
C            2.72319700824079        2.51447502850804       -0.21004181618655
N            1.36785636849724        0.04794639900341       -0.07842142281110
C            2.89980974354000       -2.31648266596579       -0.08732136050779
C            3.61769535703298       -3.48486190999139       -0.09631166679780
C            2.52649671132719       -6.84000883381516       -1.92544582261407
C            2.04387162390687       -7.93224307552440       -2.61782521490663
H            1.86706462755905      -10.06722331965638       -2.68032671138351
H            3.08410715557890      -10.39444610691152       -0.55629881916351
H            3.93410623662695       -8.45776995148073        0.69426195345858
H            4.23438657525412       -4.71993259191155        2.27745205353621
H            6.36064854817587       -4.82698432613716        3.50694672536990
H            8.24140623990393       -6.16311716646555        2.62418382843446
H            7.97977922562697       -7.38130687528634        0.49176553584076
H            5.86323992221524       -7.26152520672877       -0.75054484856817
H            1.06281123429393       -5.70074147931410        0.15289125857426
H           -0.22791926407928       -3.59477676445061        0.15592001442997
H           -2.98467796078000        2.01925996844443        0.00236648813744
H           -5.45193109191972        1.94023019159090        0.08712612550065
H           -9.24046946801477        0.77680532721055       -0.48622213635401
H          -10.50891182555375        2.54769874308098        0.65420289444002
H           -9.63736731251870        3.55941248013173        2.73161578736931
H           -7.48855185383529        2.77671026323126        3.66397048120678
H           -6.22619255745952        0.99401466477947        2.53554637891725
H           -9.09690444043593       -1.42973902665832        1.25861951806443
H          -10.31825806073626       -3.28909097103470        0.21145302934970
H           -9.53440724772724       -4.24251569738497       -1.92755543114809
H           -7.52157986486344       -3.31260149009269       -3.01524438861723
H           -6.30804910969500       -1.44185144446658       -1.97962522398763
H           -5.28723008540625       -2.32257712716350        0.40079549838437
H           -2.82121628232047       -2.22473809945464        0.29890563832867
H           -0.48865251382267        3.57224145070575       -0.00834273975824
H            0.64574635143826        5.76381492679226       -0.10688876272482
H            1.94035356366662        5.89833523078162       -2.57688919297714
H            0.92861473638655        7.71767366920367       -3.88483088619101
H            1.11544066268346       10.05665568485631       -3.11285148844068
H            2.31390586468049       10.55796019003954       -1.01234430424778
H            3.30976663458710        8.74103010817219        0.30843041558117
H            5.31578866893850        7.62909755820829       -1.10442986515060
H            7.42455682857936        7.95363374813050        0.11429558448026
H            7.78513263428648        6.84800996975997        2.29311535852300
H            6.01077571548569        5.41801618988427        3.24627153921990
H            3.89149716297018        5.10599869095294        2.03989789639098
H            4.43031115919412        3.78387435243027       -0.35952793839197
H            3.28943181838353        1.59694871133254       -0.24207539409050
H            3.39805698977969       -1.36244259962535       -0.15856496307808
H            4.69509960384605       -3.46401902324944       -0.17885797003531
H            2.37940138070533       -5.84123801229378       -2.30877834681925
H            1.51349964855135       -7.78102974506561       -3.54639054698861
