105
 energy: -161.047676815200 gnorm: 0.000050151678 xtb: 6.7.1 (edcfbbe)
C            2.30143995008968       -9.26331599601939       -2.04875628129913
C            2.95506191643815       -9.40212857859181       -0.83534615430527
C            3.41017640205655       -8.28976982355181       -0.15426746423551
C            3.22217523382904       -7.01518604318259       -0.68721999967743
N            3.69217380344300       -5.88516296405403       -0.00457765173111
C            4.91744542581939       -5.94973015314060        0.67301390708522
C            5.07894550850772       -5.31323724444966        1.90314621396394
C            6.28801453475504       -5.38178166450522        2.56751149181022
C            7.34812368786285       -6.08929218625162        2.02458823925953
C            7.19066477003481       -6.72762977501773        0.80532884200076
C            5.98797704115174       -6.65824566300236        0.12920581239820
C            2.95038225774558       -4.70649943384625       -0.00156513690300
C            1.55244082554512       -4.74579440627887        0.00313318660301
C            0.82202753056468       -3.57966223017504        0.00524710329765
C            1.46274178464155       -2.34038500651871        0.00229353327467
C            0.68767534728432       -1.10542898232680        0.00198773757528
N           -0.63945104194517       -1.20023460050287        0.04178967874086
C           -1.30543921970391       -0.04754766170896        0.04162725934402
C           -2.76120636444629       -0.09909157016465        0.09969515767217
C           -3.51497746883772        1.07288262206778        0.03053780108623
C           -4.88894892423233        1.02667398783814        0.08672561728272
C           -5.55246581149860       -0.19746891270839        0.21879325528085
N           -6.94246135664084       -0.24681475297515        0.27872596893417
C           -7.66343482728280        0.78805279797710        0.89037969775882
C           -8.87711769883055        1.21378619798240        0.35216410018719
C           -9.59228688537625        2.22515402544167        0.96366183977127
C           -9.10857579478149        2.83151322988804        2.11135435288411
C           -7.90151868900163        2.41409310031220        2.64792708866194
C           -7.18307419061225        1.39776978313350        2.04872614101465
C           -7.63680584153893       -1.33314558090305       -0.27170757009433
C           -8.76330836545864       -1.84662692770733        0.36948980318152
C           -9.45257088168814       -2.90963846185440       -0.18117544910217
C           -9.02835857821588       -3.48066703130195       -1.36980027769149
C           -7.90778087123137       -2.97573416958366       -2.00893116892899
C           -7.21667181616080       -1.90767346779899       -1.47071301437983
C           -4.79568837526834       -1.37160237497057        0.28950861188486
C           -3.42211596885494       -1.32100057324164        0.22847771203942
N           -0.72486102774730        1.14933929972408       -0.00824830618047
C            0.60564147271500        1.14947437425975       -0.04869169411535
C            1.28864273321355        2.43614536785373       -0.10713950017121
C            0.56173424446729        3.62663430959028       -0.08010220212455
C            1.20505559821255        4.84162926499159       -0.13627619818600
C            2.59959651291751        4.90204173409986       -0.22361881822782
N            3.25276041644424        6.13037341005518       -0.28206552384777
C            2.66068715195782        7.21620402645735       -0.94159999802643
C            1.94844152740942        7.02275642155531       -2.12465820610642
C            1.37131211569971        8.09796875165521       -2.77185362816742
C            1.50097041621602        9.37826789022263       -2.25886467842967
C            2.21162218687296        9.57587223907882       -1.08634604439325
C            2.78540817881735        8.50603803864494       -0.42715851101952
C            4.51092176599781        6.29163053074339        0.31423371517234
C            5.48824008279937        7.07200135927280       -0.30199528171354
C            6.72349324088425        7.23756470731806        0.29387259459768
C            7.00677710051808        6.62503161651501        1.50358103712021
C            6.03982246942799        5.84630467021982        2.11817483108097
C            4.79871451725290        5.68158279744782        1.53465255755604
C            3.32726187516659        3.70800020783109       -0.25131682156404
C            2.67992370607577        2.49538522057847       -0.19276459493613
N            1.35200170377423        0.04731720076227       -0.03863656036954
C            2.85730892179278       -2.30022076235530       -0.00191516947539
C            3.59168254644555       -3.46371108597697       -0.00342991589440
C            2.56876494237609       -6.88082195101821       -1.91178398018052
C            2.10987919309430       -7.99869059576671       -2.58088746633393
H            1.94439584757461      -10.13464893870554       -2.57640076707667
H            3.10502720706400      -10.38393985363949       -0.41090992281036
H            3.91208711344469       -8.39945033897975        0.79597800554088
H            4.25005310312585       -4.76998719768136        2.33272030176794
H            6.39992388831045       -4.88623161526251        3.52064862715755
H            8.29036773124717       -6.14324023792431        2.54840350307403
H            8.01331597877923       -7.27758884519436        0.37246222979069
H            5.86955752121036       -7.14956370640001       -0.82551931445414
H            1.05010148111491       -5.70210088177106        0.01438419528247
H           -0.25608387205479       -3.60552997540866        0.01649988880742
H           -3.00012200972746        2.01417038340298       -0.07913224777080
H           -5.46645544283314        1.93714672678898        0.01984907329731
H           -9.25175516209807        0.74761759010537       -0.54742274568141
H          -10.53031858039060        2.54710523903310        0.53584890119114
H           -9.66879723735171        3.62342007113370        2.58479486099091
H           -7.51986690183117        2.87712344487669        3.54597868266064
H           -6.24764152402881        1.06603825064471        2.47487353939363
H           -9.09055798172324       -1.40772919683076        1.30072574176163
H          -10.32259448832247       -3.29969558996876        0.32625160786420
H           -9.56776175321327       -4.31308948487682       -1.79550391043661
H           -7.57356649804281       -3.41092972939510       -2.93922642939427
H           -6.34953369744704       -1.50820139178002       -1.97587003067865
H           -5.29995021660477       -2.32020698330823        0.40269141931923
H           -2.83493264401263       -2.22343026345997        0.29145120301878
H           -0.51283035031192        3.57583270193531       -0.00359183879500
H            0.63672625788416        5.75973943256083       -0.10375542793644
H            1.85580139406970        6.02667168214530       -2.53200463682865
H            0.82409155782831        7.93546316118822       -3.68874898154319
H            1.05184916939156       10.21635344972757       -2.76975672434260
H            2.31389527541488       10.57001961015840       -0.67672110349862
H            3.33236878527626        8.66081835954974        0.49142610542151
H            5.27207056906437        7.54338822087454       -1.24960954694627
H            7.47284926572790        7.84290015762206       -0.19460481345851
H            7.97423669425576        6.75413382950132        1.96451548933478
H            6.24993643902914        5.36994189800358        3.06447647820418
H            4.04228709401265        5.08290221146238        2.02054514841339
H            4.40402321943824        3.74619089999433       -0.32929547664205
H            3.23678267701539        1.57231203467680       -0.22305263691264
H            3.34782996574714       -1.33983463518230       -0.01216701750596
H            4.67119788164463       -3.42536523956198       -0.01614544768918
H            2.42833729410015       -5.89642813757080       -2.33361941606422
H            1.60686363134941       -7.88140781217953       -3.52946234837452
