  54
  -94.8384278566000       0.363323248860901      !
 F         -1.5816487358       -0.0248040544        2.2448384252
 C         -0.7893734180       -0.0136188550        1.1493599922
 C          0.5738131379       -0.0154314267        1.3127818096
 C          1.4013358707       -0.0041515670        0.1591224894
 N          2.8180656641       -0.0005846886        0.2663808891
 C          3.4510956283        1.2268527355        0.2286747003
 C          2.7079769548        2.3993937673        0.4152755374
 C          3.2954966348        3.6429823704        0.3560671073
 C          4.6607505613        3.7669409958        0.0910925892
 C          5.4145189557        2.6313301454       -0.0959120961
 C          4.8338473111        1.3679654174       -0.0192113903
 S          5.8866597187       -0.0011410290       -0.3121647246
 C          4.8427274464       -1.3646980052        0.0343235491
 C          5.4333138923       -2.6258785564        0.0073577883
 C          4.6869206480       -3.7594127527        0.2321422787
 C          3.3189595545       -3.6365261970        0.4817430072
 C          2.7218590239       -2.3956489017        0.4924164617
 C          3.4581509125       -1.2252133099        0.2715255552
 C          0.7929368930        0.0101142256       -1.0953170051
 F          1.5858710916        0.0222785774       -2.1903808906
 C         -0.5696637824        0.0125093412       -1.2585906752
 C         -1.3972503186        0.0000024492       -0.1048982550
 N         -2.8137425470        0.0014635663       -0.2190518894
 C         -3.4500900671       -1.2248627790       -0.2531505738
 C         -2.7030343279       -2.3927107745       -0.4508645617
 C         -3.2974126484       -3.6348457310       -0.4719297053
 C         -4.6737112335       -3.7619488265       -0.2815534261
 C         -5.4309482637       -2.6306831720       -0.0802780053
 C         -4.8419959521       -1.3691291338       -0.0725969232
 S         -5.9031755486       -0.0093734688        0.2385302007
 C         -4.8431471363        1.3632071148       -0.0143695974
 C         -5.4327348325        2.6235339559        0.0318826157
 C         -4.6765500252        3.7626906692       -0.1240612189
 C         -3.3007302319        3.6443844423       -0.3243518973
 C         -2.7056515546        2.4029307794       -0.3559448425
 C         -3.4513967484        1.2273701728       -0.2030846070
 H          1.0123412379       -0.0247656381        2.2957430804
 H          1.6509841629        2.3196465861        0.6151537707
 H          2.6928171685        4.5239247209        0.5124859457
 H          5.1199288885        4.7406972689        0.0331904983
 H          6.4716712505        2.6957766497       -0.3050741319
 H          6.4917506632       -2.6898745009       -0.1948850631
 H          5.1539912838       -4.7310103115        0.2138045726
 H          2.7213715706       -4.5157228859        0.6649287231
 H          1.6625549040       -2.3176250398        0.6797213943
 H         -1.0086990564        0.0237016890       -2.2412807090
 H         -1.6371282459       -2.3120454323       -0.5940488177
 H         -2.6904481916       -4.5116167290       -0.6353410976
 H         -5.1394846616       -4.7343076314       -0.2900454631
 H         -6.4970456086       -2.6975759994        0.0755522111
 H         -6.4985354595        2.6832702380        0.1926303574
 H         -5.1427839989        4.7342693616       -0.0907665549
 H         -2.6949926400        4.5275944141       -0.4535153741
 H         -1.6401873393        2.3284605779       -0.5069072453
  54
  -94.8382459570000       0.299707713784410      !
 F         -1.5893458554        1.7732579300        1.2881910339
 C         -0.7944701250        0.9025670189        0.6261617342
 C          0.5675957671        1.0299412805        0.7323953380
 C          1.3973849701        0.1101357135        0.0388529293
 N          2.8127879978        0.1747292285        0.1439550814
 C          3.4848201545        1.0243042414       -0.7158859507
 C          2.7694227583        1.9569735819       -1.4760577378
 C          3.4021910067        2.8148742292       -2.3496284529
 C          4.7861317867        2.7655030233       -2.5078913518
 C          5.5120878210        1.8487702027       -1.7821362540
 C          4.8830916425        0.9847823718       -0.8895498850
 S          5.9133844217       -0.1753898290       -0.0711008478
 C          4.8010196457       -0.9564984497        1.0356351802
 C          5.3472054629       -1.8855251030        1.9156847563
 C          4.5536413034       -2.5508962573        2.8228213413
 C          3.1853325782       -2.2803264877        2.8554700128
 C          2.6331350197       -1.3765238503        1.9764092854
 C          3.4149961352       -0.6943620932        1.0346306779
 C          0.7909917960       -0.8857809546       -0.7260227779
 F          1.5852497992       -1.7612651220       -1.3823832346
 C         -0.5715182448       -1.0131614529       -0.8326668032
 C         -1.4012826533       -0.0948738801       -0.1368724752
 N         -2.8172142687       -0.1963747326       -0.1848804803
 C         -3.4714621594        0.4589331131       -1.2104117307
 C         -2.7480385636        0.9265019839       -2.3140214527
 C         -3.3621165468        1.6001058455       -3.3465607718
 C         -4.7354091392        1.8494374585       -3.3087453893
 C         -5.4684781407        1.4107004052       -2.2311023321
 C         -4.8604231289        0.7134046002       -1.1889398732
 S         -5.8859835753        0.2637545197        0.1573409129
 C         -4.8165161967       -0.7100489404        1.1426623282
 C         -5.3787869880       -1.3279561971        2.2566831097
 C         -4.6115706780       -2.0985669874        3.0990486830
 C         -3.2500700613       -2.2576563488        2.8272677380
 C         -2.6797233156       -1.6336583880        1.7417135304
 C         -3.4355805888       -0.8378130439        0.8704125811
 H          1.0042896108        1.8089412997        1.3333103118
 H          1.6971046345        2.0039685430       -1.3720931361
 H          2.8172086502        3.5247054573       -2.9132067402
 H          5.2832569121        3.4327467604       -3.1936403987
 H          6.5838671363        1.7783404087       -1.8911056680
 H          6.4101173334       -2.0690104542        1.8701905697
 H          4.9862461899       -3.2685763240        3.5011395218
 H          2.5514857312       -2.7819021627        3.5700276245
 H          1.5730008817       -1.1798292279        2.0128688299
 H         -1.0080579103       -1.7965088364       -1.4280501682
 H         -1.6849020965        0.7495382443       -2.3540818086
 H         -2.7739282895        1.9376533241       -4.1854198289
 H         -5.2159867518        2.3836245156       -4.1126562197
 H         -6.5299136150        1.5975999711       -2.1689665525
 H         -6.4334325357       -1.1878607506        2.4401783125
 H         -5.0564499801       -2.5754935282        3.9574977112
 H         -2.6385831755       -2.8696244749        3.4715445108
 H         -1.6262356788       -1.7614215169        1.5474150155
  54
  -94.8380189887000       0.235716786719023      !
 F         -1.5716728225       -1.8225318593        1.2591485052
 C         -0.7856936470       -0.9166210017        0.6347237151
 C          0.5774738802       -1.0326389849        0.7405912613
 C          1.3998223853       -0.0818490450        0.0802859011
 N          2.8160075878       -0.1516862666        0.1629393626
 C          3.4363907553        0.7038956080        1.0531553260
 C          2.6762738161        1.3611574584        2.0301262266
 C          3.2460505925        2.2534946008        2.9090758503
 C          4.6113662262        2.5372085715        2.8417084239
 C          5.3842102617        1.8952886913        1.9008816658
 C          4.8207583953        0.9774308003        1.0198374640
 S          5.9032577329        0.2306812831       -0.1381392950
 C          4.8647383926       -0.9395513477       -0.9283642362
 C          5.4773517991       -1.7929632297       -1.8435588870
 C          4.7409239075       -2.7134914684       -2.5531092589
 C          3.3615923165       -2.7757005446       -2.3590869348
 C          2.7442117824       -1.9262550017       -1.4662931357
 C          3.4710621158       -0.9925501023       -0.7187757458
 C          0.7839365838        0.9422180956       -0.6389492645
 F          1.5695159285        1.8518571839       -1.2584129130
 C         -0.5796204126        1.0617200446       -0.7400013290
 C         -1.4017527043        0.1021927628       -0.0922227128
 N         -2.8182277825        0.1805385175       -0.1561869201
 C         -3.4673587023        0.6905341667        0.9516013966
 C         -2.7403430326        1.3992909220        1.9180230254
 C         -3.3371044565        1.8821970576        3.0595696696
 C         -4.6974713252        1.6653033451        3.2914783620
 C         -5.4388229823        0.9862970329        2.3516571084
 C         -4.8490558263        0.5119431669        1.1837276625
 S         -5.8894627546       -0.3449427063        0.0654673663
 C         -4.8310463981       -0.6173618649       -1.3044595869
 C         -5.4155062412       -1.1799937603       -2.4374795091
 C         -4.6578566513       -1.4870391490       -3.5437027013
 C         -3.2843024873       -1.2459247108       -3.5163038479
 C         -2.6943008827       -0.7024987516       -2.3956599315
 C         -3.4440684531       -0.3610769152       -1.2640438706
 H          1.0207399020       -1.8289940572        1.3134794372
 H          1.6197017402        1.1528271180        2.0933787655
 H          2.6299183557        2.7357658647        3.6516856280
 H          5.0570319784        3.2464177040        3.5206888346
 H          6.4439300238        2.0889046103        1.8287396012
 H          6.5446336544       -1.7106338663       -1.9826480658
 H          5.2253805590       -3.3740324627       -3.2543141623
 H          2.7684086730       -3.4883453109       -2.9103474770
 H          1.6753736162       -1.9829362758       -1.3368194146
 H         -1.0227042750        1.8674593558       -1.2997672373
 H         -1.6880974083        1.5718982837        1.7529179153
 H         -2.7470895631        2.4292430678        3.7782428054
 H         -5.1629028140        2.0294023723        4.1931746678
 H         -6.4935414987        0.8094541033        2.5000278159
 H         -6.4780880726       -1.3692484533       -2.4226624258
 H         -5.1203641395       -1.9146495714       -4.4185352381
 H         -2.6746696525       -1.4873670561       -4.3728910983
 H         -1.6296707646       -0.5326566699       -2.3895891379
  54
  -94.8372204438000       0.101252250635666      !
 F         -1.6110527977        1.9172211811        1.0788020525
 C         -0.8044900181        1.0042660541        0.4918759486
 C          0.5555485650        1.1554065018        0.5913547087
 C          1.3984305203        0.1857141978       -0.0128579128
 N          2.8109410335        0.2480380745        0.1216578181
 C          3.5167110546        1.0201733103       -0.7814659241
 C          2.8407121286        1.9371515698       -1.5943579332
 C          3.5108132067        2.7216793603       -2.5080051037
 C          4.8926577130        2.6071266180       -2.6566524911
 C          5.5791182674        1.7002095823       -1.8822771559
 C          4.9132928001        0.9126490749       -0.9459911438
 S          5.8848821306       -0.2584909632       -0.0748797181
 C          4.7538800723       -0.8787774452        1.1114686757
 C          5.2642853588       -1.7495646297        2.0695781340
 C          4.4478627175       -2.2941837965        3.0344769087
 C          3.0924202268       -1.9603631381        3.0473776014
 C          2.5742951610       -1.1163836477        2.0917952211
 C          3.3795403740       -0.5582177095        1.0900517430
 C          0.8050344849       -0.8741560870       -0.6987355056
 F          1.6112868639       -1.7946017688       -1.2740958874
 C         -0.5551238657       -1.0227397265       -0.8023647782
 C         -1.3981972093       -0.0620685278       -0.1841044302
 N         -2.8107129787       -0.2087486774       -0.1851495940
 C         -3.5150724918        0.2656274840       -1.2754857213
 C         -2.8383021317        0.5966534997       -2.4548681621
 C         -3.5080213977        1.0733385730       -3.5609828731
 C         -4.8905012686        1.2557479295       -3.5243219934
 C         -5.5774647171        0.9571628590       -2.3704397166
 C         -4.9123063012        0.4600565253       -1.2515730385
 S         -5.8841387064        0.1921862935        0.1820599497
 C         -4.7557940201       -0.6037399852        1.2596732834
 C         -5.2667949484       -1.0824072433        2.4625377930
 C         -4.4516357653       -1.7119310464        3.3750906550
 C         -3.0957400987       -1.8722007420        3.0806768142
 C         -2.5768255336       -1.3842226354        1.9036945927
 C         -3.3806583433       -0.7265117988        0.9625051021
 H          0.9805650712        1.9861225481        1.1281200259
 H          1.7708054871        2.0314048623       -1.4977034117
 H          2.9577110223        3.4249489466       -3.1105362400
 H          5.4180806112        3.2170935753       -3.3739470233
 H          6.6467576606        1.5784471675       -1.9854521492
 H          6.3173097883       -1.9849864876        2.0374406295
 H          4.8523076930       -2.9669436087        3.7735038134
 H          2.4429802459       -2.3662675542        3.8070733739
 H          1.5242562794       -0.8699760708        2.1130600403
 H         -0.9800976080       -1.8587392564       -1.3308815466
 H         -1.7681316303        0.4706294860       -2.4961169681
 H         -2.9547595136        1.3076509915       -4.4568273359
 H         -5.4154839845        1.6326133001       -4.3874890803
 H         -6.6451586280        1.1030277894       -2.3063351310
 H         -6.3197341125       -0.9490413142        2.6598692632
 H         -4.8564017317       -2.0808283147        4.3037100756
 H         -2.4474120179       -2.3785845243        3.7784966035
 H         -1.5271151184       -1.5141485914        1.6913212105
