  41
        -63.26481320
 C         -5.8509683540        2.1239930094       -0.3031416671
 C         -4.6742561411        2.6995447573       -0.7559632927
 C         -3.4807982403        2.0141251348       -0.6507188066
 C         -3.4437704172        0.7359191543       -0.0919676887
 C         -2.1674468793        0.0493536970        0.0047440613
 N         -1.0122327685        0.7424966335        0.0703993395
 C         -0.0158692351       -0.1182096375        0.1434081869
 C          1.3766418504        0.2862834465        0.2049328093
 C          1.6791082007        1.4901917646        0.8849192460
 C          2.9628192357        1.9373337245        0.9722838368
 C          4.0249038155        1.2165980649        0.3825084069
 C          5.3641102335        1.6463468240        0.4643828962
 C          6.3651370089        0.9338219541       -0.1360272080
 C          6.0702621231       -0.2391853908       -0.8477711362
 C          4.7813820227       -0.6837985004       -0.9429925016
 C          3.7266950781        0.0252260516       -0.3295645671
 C          2.3909637017       -0.4143934497       -0.4077961996
 N         -0.4869790238       -1.4023731629        0.1388779141
 C          0.1377319984       -2.6026782274        0.2995122078
 C         -0.5811161397       -3.7502862200        0.2523357022
 C         -1.9809316456       -3.7119606056        0.0312420394
 C         -2.6194634896       -2.5116586452       -0.0630823167
 C         -1.8800631965       -1.3205319727        0.0347504734
 C         -4.6283474271        0.1745788209        0.3819786231
 C         -5.8211611868        0.8644304849        0.2714374147
 H         -6.7858999341        2.6582864448       -0.3889793616
 H         -4.6911526151        3.6870315908       -1.1946122154
 H         -2.5563304333        2.4501136751       -0.9962969998
 H          0.8607025888        2.0373404241        1.3259880286
 H          3.1885829291        2.8551800872        1.4964113681
 H          5.5852306745        2.5521863716        1.0110993628
 H          7.3897580057        1.2694140134       -0.0693882202
 H          6.8721953145       -0.7880995437       -1.3196366802
 H          4.5511844831       -1.5875115363       -1.4898999838
 H          2.1806213567       -1.2959560516       -0.9975994579
 H          1.1998918331       -2.5792253698        0.4833477970
 H         -0.0836839076       -4.6978581590        0.3805004513
 H         -2.5291833598       -4.6373024935       -0.0457397702
 H         -3.6836187937       -2.4527146940       -0.2227863823
 H         -4.6127212355       -0.7899607478        0.8665491322
 H         -6.7331604096        0.4193123054        0.6430986901
  41
        -63.26439152
 C         -5.4801901308        2.3362159902       -0.9355247359
 C         -4.3103975354        2.9231677741       -0.4794236025
 C         -3.2088137198        2.1430515150       -0.1906490413
 C         -3.2591072359        0.7574558965       -0.3501982359
 C         -2.0790579582       -0.0282674964       -0.0342726350
 N         -0.8460808824        0.5176710633       -0.0959263625
 C          0.0311805028       -0.4036286712        0.2482518168
 C          1.4625449187       -0.1643513088        0.3141861686
 C          2.2587059125       -0.7236501454        1.3398552999
 C          3.5999491254       -0.4779026367        1.3882545932
 C          4.2257835653        0.3431869396        0.4266268279
 C          5.6109114975        0.6027762606        0.4462463921
 C          6.1809491198        1.4185270404       -0.4909085195
 C          5.3907468266        2.0132022135       -1.4877606028
 C          4.0450603016        1.7812457016       -1.5335564426
 C          3.4256006717        0.9407478769       -0.5834047567
 C          2.0460385557        0.6707451071       -0.6125259594
 N         -0.5958691160       -1.5839210118        0.5368278603
 C         -0.1111415117       -2.8220136068        0.8359831486
 C         -0.9689974353       -3.8399088355        1.0879485091
 C         -2.3697288999       -3.6254252685        1.0436112742
 C         -2.8582239222       -2.4061472544        0.6801796601
 C         -1.9679705189       -1.3623047024        0.3748258829
 C         -4.4318605270        0.1784837642       -0.8325454097
 C         -5.5328953810        0.9643459423       -1.1174464890
 H         -6.3440279294        2.9457304313       -1.1574788288
 H         -4.2607388478        3.9944784817       -0.3476712244
 H         -2.2904773904        2.5855691414        0.1628419698
 H          1.7928867102       -1.3151380880        2.1150886034
 H          4.2032242877       -0.9038460149        2.1778743817
 H          6.2143136597        0.1446133514        1.2173748252
 H          7.2434475031        1.6127801463       -0.4711235300
 H          5.8586827915        2.6565425909       -2.2187041988
 H          3.4319312086        2.2365496935       -2.2979024873
 H          1.4286785530        1.1210509303       -1.3749859537
 H          0.9608645998       -2.9389997197        0.8399197355
 H         -0.5828580783       -4.8177831384        1.3254789127
 H         -3.0359528304       -4.4379947895        1.2855291325
 H         -3.9181808358       -2.2182568292        0.6311347838
 H         -4.4736913115       -0.8846772190       -1.0152354026
 H         -6.4367554281        0.5040489892       -1.4908789791
  41
        -63.26418140
 C         -5.3656326697        2.4941645522       -0.7735632341
 C         -5.4804819471        1.1379157230       -1.0284789228
 C         -4.4152532341        0.2888934601       -0.7925828986
 C         -3.2162345932        0.7876242248       -0.2860030861
 C         -2.0626735956       -0.0590294748       -0.0377521782
 N         -0.8174412699        0.4580453328       -0.0573161088
 C          0.0414505055       -0.5131203941        0.1853916329
 C          1.4716030381       -0.2824916396        0.2694290302
 C          2.3075144741       -1.0095147047        1.1477433944
 C          3.6431821628       -0.7382809540        1.2176267135
 C          4.2238484463        0.2827410425        0.4362688850
 C          5.5987141225        0.5870936814        0.4949303442
 C          6.1193257282        1.6072599052       -0.2513726329
 C          5.2886279645        2.3676632669       -1.0905005625
 C          3.9530092711        2.0930532687       -1.1745222068
 C          3.3837497472        1.0456427737       -0.4179237805
 C          2.0145435269        0.7373726145       -0.4829899651
 N         -0.6139607549       -1.7012534604        0.3605975141
 C         -0.1649741999       -2.9787737190        0.5168735658
 C         -1.0493643350       -3.9913965174        0.6864006198
 C         -2.4427905444       -3.7326061611        0.7014046549
 C         -2.8987285775       -2.4699206722        0.4660408738
 C         -1.9822464783       -1.4287051680        0.2416281574
 C         -3.1051675166        2.1585338906       -0.0476225394
 C         -4.1705213873        3.0020790064       -0.2890434065
 H         -6.2006591622        3.1533372552       -0.9610471621
 H         -6.4047867288        0.7397909429       -1.4226694132
 H         -4.5062288960       -0.7594529777       -1.0332485661
 H          1.8806679895       -1.7543772745        1.8033628597
 H          4.2763112508       -1.2968966080        1.8929692107
 H          6.2333304828        0.0014793302        1.1453572969
 H          7.1732467244        1.8387054975       -0.1992398661
 H          5.7177029340        3.1727473854       -1.6692473203
 H          3.3088357686        2.6736258916       -1.8190283428
 H          1.3663121735        1.3114663024       -1.1272932700
 H          0.9012851522       -3.1321548911        0.4759688080
 H         -0.6889670046       -4.9996326638        0.8109482033
 H         -3.1295388684       -4.5442214272        0.8810768629
 H         -3.9529626372       -2.2467083319        0.4581489454
 H         -2.1672039098        2.5390476603        0.3258331407
 H         -4.0721776406        4.0612141840       -0.0988761722
  41
        -63.26344569
 C         -5.3813408692        2.4697476724       -0.9084671406
 C         -4.0769361232        2.9381449548       -0.9302050829
 C         -3.0297948966        2.0899643270       -0.6366688265
 C         -3.2582034496        0.7479601673       -0.3148844117
 C         -2.1032456168       -0.0832444097       -0.0205149016
 N         -0.8676536257        0.4611949209       -0.0954106825
 C          0.0168589619       -0.4570087729        0.2266435256
 C          1.4452553204       -0.2011852457        0.2987292692
 C          2.2474802987       -0.7662520294        1.3163506789
 C          3.5828270491       -0.4929182904        1.3787161622
 C          4.1959953204        0.3657090755        0.4421127959
 C          5.5731412741        0.6618525183        0.4826072887
 C          6.1294597027        1.5169621413       -0.4274455977
 C          5.3333637252        2.1139953644       -1.4180711781
 C          3.9952502479        1.8456908516       -1.4845696857
 C          3.3896406897        0.9662221125       -0.5612515912
 C          2.0172224531        0.6645274333       -0.6070119461
 N         -0.6014439269       -1.6446227887        0.5013265492
 C         -0.0915111460       -2.8803815197        0.7623332318
 C         -0.9255275399       -3.9249796150        0.9808249150
 C         -2.3281399298       -3.7360212941        0.9263525027
 C         -2.8396255317       -2.5132762103        0.6075142798
 C         -1.9791527741       -1.4289893766        0.3599363068
 C         -4.5748552905        0.2894106404       -0.3005730804
 C         -5.6218696344        1.1437802708       -0.5925913664
 H         -6.2036303239        3.1321353147       -1.1362416988
 H         -3.8791877430        3.9712615273       -1.1775163330
 H         -2.0107545906        2.4427347787       -0.6477098477
 H          1.7909716042       -1.3849397671        2.0756280568
 H          4.1903280756       -0.9247363474        2.1616095192
 H          6.1814257556        0.2018174524        1.2486461544
 H          7.1856500373        1.7412074651       -0.3904430060
 H          5.7905035461        2.7890666497       -2.1269195433
 H          3.3779331977        2.3030056798       -2.2441193714
 H          1.3957851825        1.1164812076       -1.3652206864
 H          0.9827472013       -2.9741536568        0.7589510769
 H         -0.5200506211       -4.9017125731        1.1880551096
 H         -2.9817165856       -4.5715670594        1.1189466613
 H         -3.9044761585       -2.3719834206        0.5403280581
 H         -4.7961873178       -0.7380190479       -0.0648233005
 H         -6.6357714113        0.7697526406       -0.5735596570
