  41
  -63.2648132000000       0.141392472146298      !
 C         -5.8509683540        2.1239930094       -0.3031416671
 C         -4.6742561411        2.6995447573       -0.7559632927
 C         -3.4807982403        2.0141251348       -0.6507188066
 C         -3.4437704172        0.7359191543       -0.0919676887
 C         -2.1674468793        0.0493536970        0.0047440613
 N         -1.0122327685        0.7424966335        0.0703993395
 C         -0.0158692351       -0.1182096375        0.1434081869
 C          1.3766418504        0.2862834465        0.2049328093
 C          1.6791082007        1.4901917646        0.8849192460
 C          2.9628192357        1.9373337245        0.9722838368
 C          4.0249038155        1.2165980649        0.3825084069
 C          5.3641102335        1.6463468240        0.4643828962
 C          6.3651370089        0.9338219541       -0.1360272080
 C          6.0702621231       -0.2391853908       -0.8477711362
 C          4.7813820227       -0.6837985004       -0.9429925016
 C          3.7266950781        0.0252260516       -0.3295645671
 C          2.3909637017       -0.4143934497       -0.4077961996
 N         -0.4869790238       -1.4023731629        0.1388779141
 C          0.1377319984       -2.6026782274        0.2995122078
 C         -0.5811161397       -3.7502862200        0.2523357022
 C         -1.9809316456       -3.7119606056        0.0312420394
 C         -2.6194634896       -2.5116586452       -0.0630823167
 C         -1.8800631965       -1.3205319727        0.0347504734
 C         -4.6283474271        0.1745788209        0.3819786231
 C         -5.8211611868        0.8644304849        0.2714374147
 H         -6.7858999341        2.6582864448       -0.3889793616
 H         -4.6911526151        3.6870315908       -1.1946122154
 H         -2.5563304333        2.4501136751       -0.9962969998
 H          0.8607025888        2.0373404241        1.3259880286
 H          3.1885829291        2.8551800872        1.4964113681
 H          5.5852306745        2.5521863716        1.0110993628
 H          7.3897580057        1.2694140134       -0.0693882202
 H          6.8721953145       -0.7880995437       -1.3196366802
 H          4.5511844831       -1.5875115363       -1.4898999838
 H          2.1806213567       -1.2959560516       -0.9975994579
 H          1.1998918331       -2.5792253698        0.4833477970
 H         -0.0836839076       -4.6978581590        0.3805004513
 H         -2.5291833598       -4.6373024935       -0.0457397702
 H         -3.6836187937       -2.4527146940       -0.2227863823
 H         -4.6127212355       -0.7899607478        0.8665491322
 H         -6.7331604096        0.4193123054        0.6430986901
  41
  -63.2648115600000       0.141147306855670      !
 C         -5.8532243969        2.1196396694       -0.2993027162
 C         -5.8174294365        0.8673939368        0.2907395507
 C         -4.6230444074        0.1800668585        0.3996513198
 C         -3.4430151008        0.7369396916       -0.0903553742
 C         -2.1661111368        0.0510991506        0.0046391176
 N         -1.0101632980        0.7428592756        0.0661211826
 C         -0.0145057478       -0.1190406636        0.1387117652
 C          1.3780075474        0.2854860779        0.2002665264
 C          1.6783236314        1.4931843241        0.8743379793
 C          2.9613423955        1.9423627537        0.9613670226
 C          4.0253255249        1.2196180937        0.3778228574
 C          5.3636727876        1.6520592835        0.4584256607
 C          6.3668356549        0.9366794982       -0.1349121907
 C          6.0750382318       -0.2429369210       -0.8370011272
 C          4.7868386854       -0.6896495240       -0.9316311291
 C          3.7298205395        0.0231183825       -0.3266703768
 C          2.3945757507       -0.4177675636       -0.4059173508
 N         -0.4872885180       -1.4026760972        0.1365266536
 C          0.1352052026       -2.6044425967        0.2951970189
 C         -0.5863370817       -3.7505683457        0.2507343591
 C         -1.9868008453       -3.7097900003        0.0347222023
 C         -2.6229803645       -2.5081635886       -0.0582816888
 C         -1.8803999306       -1.3189388063        0.0358561446
 C         -3.4856513867        2.0081685679       -0.6641243463
 C         -4.6809359050        2.6907417509       -0.7685936855
 H         -6.7893398560        2.6520544394       -0.3837132246
 H         -6.7260206972        0.4258680600        0.6751377769
 H         -4.6021006649       -0.7787040837        0.8955210419
 H          0.8587260133        2.0416679145        1.3112360111
 H          3.1851241847        2.8631371371        1.4810624123
 H          5.5824344286        2.5629455371        0.9974587026
 H          7.3907273537        1.2748264655       -0.0699279807
 H          6.8787267949       -0.7949924130       -1.3020394278
 H          4.5590330764       -1.5985025549       -1.4710727174
 H          2.1865894160       -1.3020493605       -0.9922429283
 H          1.1980694600       -2.5839313061        0.4749335484
 H         -0.0902223792       -4.6991717347        0.3767698835
 H         -2.5371790183       -4.6340353948       -0.0393133334
 H         -3.6875800655       -2.4461785783       -0.2135923137
 H         -2.5644796587        2.4411394937       -1.0221199966
 H         -4.7024816452        3.6727615954       -1.2186431274
  41
  -63.2647384400000       0.130637833880497      !
 C         -5.8715677675        2.1070250677       -0.2051613767
 C         -5.7254694557        0.8991125209       -0.8665094300
 C         -4.5218616100        0.2206951784       -0.8249268523
 C         -3.4443601669        0.7414776061       -0.1102505904
 C         -2.1647161241        0.0587473331       -0.0331161092
 N         -1.0163969560        0.7478999711        0.1273887677
 C         -0.0163705094       -0.1115066692        0.1353980374
 C          1.3761621622        0.2851230249        0.2347496886
 C          1.6854635863        1.4126306584        1.0313531282
 C          2.9723048170        1.8394834179        1.1647557594
 C          4.0306494421        1.1731136182        0.5085825720
 C          5.3731315236        1.5807391295        0.6370627365
 C          6.3706179189        0.9225381693       -0.0275443872
 C          6.0689674274       -0.1714539356       -0.8532757211
 C          4.7767482131       -0.5923732530       -0.9971836822
 C          3.7255912147        0.0614567573       -0.3198629826
 C          2.3869658955       -0.3573820890       -0.4440959682
 N         -0.4805713709       -1.3935917382        0.0203557609
 C          0.1488941760       -2.5984359056        0.1100089192
 C         -0.5708216931       -3.7445616226        0.0395842850
 C         -1.9804178814       -3.7004628502       -0.1006693904
 C         -2.6200582293       -2.4977296248       -0.1478551682
 C         -1.8726412241       -1.3093363307       -0.0907067825
 C         -3.5945936298        1.9699830812        0.5339980980
 C         -4.7983197606        2.6439050469        0.4880326415
 H         -6.8151393758        2.6317506781       -0.2378632134
 H         -6.5538380261        0.4861291173       -1.4245429796
 H         -4.4090430399       -0.7015995697       -1.3748807663
 H          0.8709674828        1.9197132023        1.5241818740
 H          3.2035388937        2.6985317064        1.7783270845
 H          5.5996565819        2.4264155967        1.2710605400
 H          7.3977959815        1.2405858448        0.0757294994
 H          6.8683884280       -0.6782330003       -1.3740488686
 H          4.5409381327       -1.4352519911       -1.6319503857
 H          2.1706378243       -1.1734240954       -1.1193672831
 H          1.2148778386       -2.5813199822        0.2707828729
 H         -0.0685318224       -4.6954313124        0.1126752827
 H         -2.5358668243       -4.6237778243       -0.1417203756
 H         -3.6943860606       -2.4349199242       -0.2030122615
 H         -2.7493400292        2.3783083676        1.0657610980
 H         -4.9043464685        3.5916858128        0.9958026804
  41
  -63.2647367900000       0.130409936429948      !
 C         -5.8533569387        2.1064794697       -0.3758723062
 C         -4.7739665483        2.7047931291        0.2547192520
 C         -3.5774614889        2.0270742763        0.3752218881
 C         -3.4406642130        0.7337072281       -0.1300925710
 C         -2.1646437787        0.0544117937        0.0115833430
 N         -1.0122704424        0.7511418951        0.0846600342
 C         -0.0145465134       -0.1070829444        0.1687683827
 C          1.3790651533        0.2957478126        0.1991069000
 C          1.6985600464        1.5121543128        0.8476081981
 C          2.9851952928        1.9562820673        0.9014172288
 C          4.0339767446        1.2191509731        0.3083805529
 C          5.3756489331        1.6461553788        0.3540379207
 C          6.3628359582        0.9160245877       -0.2480384757
 C          6.0514090112       -0.2737683799       -0.9240551000
 C          4.7595981648       -0.7155885509       -0.9845716600
 C          3.7187761954        0.0128636508       -0.3703116037
 C          2.3802776762       -0.4219931016       -0.4157814157
 N         -0.4843907157       -1.3921792458        0.1932514130
 C          0.1419871580       -2.5848417308        0.3963159151
 C         -0.5820009846       -3.7292628008        0.4482146963
 C         -1.9930441256       -3.6933089604        0.3217148505
 C         -2.6294608070       -2.4983157705        0.1640582336
 C         -1.8776306250       -1.3136127803        0.0918009960
 C         -4.5252122976        0.1478217614       -0.7808082594
 C         -5.7213908110        0.8306027830       -0.8978690733
 H         -6.7905387401        2.6354826388       -0.4689190726
 H         -4.8690823295        3.7042824410        0.6540218160
 H         -2.7275468855        2.4826909240        0.8590051371
 H          0.8908792242        2.0734959601        1.2905821075
 H          3.2236572592        2.8847228053        1.4006435105
 H          5.6100721757        2.5650024031        0.8729296939
 H          7.3892861778        1.2504420428       -0.2103180291
 H          6.8427496000       -0.8373717853       -1.3966295483
 H          4.5160979861       -1.6320120271       -1.5042423326
 H          2.1560845065       -1.3140630396       -0.9839584430
 H          1.2096954818       -2.5569461834        0.5430054354
 H         -0.0814840346       -4.6703591519        0.6081946088
 H         -2.5516631997       -4.6138272164        0.3782906126
 H         -3.7042679257       -2.4365539359        0.1169632261
 H         -4.4231455191       -0.8310658114       -1.2247300490
 H         -6.5546164322        0.3674807469       -1.4072315432
  41
  -63.2643915200000       9.049729070372250E-002 !
 C         -5.4801901308        2.3362159902       -0.9355247359
 C         -4.3103975354        2.9231677741       -0.4794236025
 C         -3.2088137198        2.1430515150       -0.1906490413
 C         -3.2591072359        0.7574558965       -0.3501982359
 C         -2.0790579582       -0.0282674964       -0.0342726350
 N         -0.8460808824        0.5176710633       -0.0959263625
 C          0.0311805028       -0.4036286712        0.2482518168
 C          1.4625449187       -0.1643513088        0.3141861686
 C          2.2587059125       -0.7236501454        1.3398552999
 C          3.5999491254       -0.4779026367        1.3882545932
 C          4.2257835653        0.3431869396        0.4266268279
 C          5.6109114975        0.6027762606        0.4462463921
 C          6.1809491198        1.4185270404       -0.4909085195
 C          5.3907468266        2.0132022135       -1.4877606028
 C          4.0450603016        1.7812457016       -1.5335564426
 C          3.4256006717        0.9407478769       -0.5834047567
 C          2.0460385557        0.6707451071       -0.6125259594
 N         -0.5958691160       -1.5839210118        0.5368278603
 C         -0.1111415117       -2.8220136068        0.8359831486
 C         -0.9689974353       -3.8399088355        1.0879485091
 C         -2.3697288999       -3.6254252685        1.0436112742
 C         -2.8582239222       -2.4061472544        0.6801796601
 C         -1.9679705189       -1.3623047024        0.3748258829
 C         -4.4318605270        0.1784837642       -0.8325454097
 C         -5.5328953810        0.9643459423       -1.1174464890
 H         -6.3440279294        2.9457304313       -1.1574788288
 H         -4.2607388478        3.9944784817       -0.3476712244
 H         -2.2904773904        2.5855691414        0.1628419698
 H          1.7928867102       -1.3151380880        2.1150886034
 H          4.2032242877       -0.9038460149        2.1778743817
 H          6.2143136597        0.1446133514        1.2173748252
 H          7.2434475031        1.6127801463       -0.4711235300
 H          5.8586827915        2.6565425909       -2.2187041988
 H          3.4319312086        2.2365496935       -2.2979024873
 H          1.4286785530        1.1210509303       -1.3749859537
 H          0.9608645998       -2.9389997197        0.8399197355
 H         -0.5828580783       -4.8177831384        1.3254789127
 H         -3.0359528304       -4.4379947895        1.2855291325
 H         -3.9181808358       -2.2182568292        0.6311347838
 H         -4.4736913115       -0.8846772190       -1.0152354026
 H         -6.4367554281        0.5040489892       -1.4908789791
  41
  -63.2643864900000       9.001687864375083E-002 !
 C         -5.4683985090        2.4151142556       -0.7673155348
 C         -5.5158682871        1.0675204760       -1.0839485991
 C         -4.4183624150        0.2575347629       -0.8592417636
 C         -3.2545532465        0.7867362603       -0.3031881891
 C         -2.0776039863       -0.0262707974       -0.0511596840
 N         -0.8443621338        0.5223484968       -0.0457636055
 C          0.0299156698       -0.4296155695        0.2120578711
 C          1.4604927391       -0.1977611489        0.3134264597
 C          2.2481271776       -0.8489231521        1.2901502542
 C          3.5873003759       -0.6024212968        1.3774908966
 C          4.2196670174        0.3081730959        0.5045581618
 C          5.6026408403        0.5726090038        0.5659249521
 C          6.1791340545        1.4730020380       -0.2858608910
 C          5.3977799324        2.1512795735       -1.2353541341
 C          4.0541715508        1.9182114334       -1.3188004359
 C          3.4281840355        0.9921914573       -0.4563060758
 C          2.0503539601        0.7212024096       -0.5259176461
 N         -0.5995014018       -1.6321603014        0.3760101266
 C         -0.1172232385       -2.8943839704        0.5531141932
 C         -0.9771479647       -3.9325004323        0.6895882274
 C         -2.3775694472       -3.7139671003        0.6533966317
 C         -2.8628657713       -2.4633745985        0.4129336981
 C         -1.9700293046       -1.3945332746        0.2240158945
 C         -3.2095292488        2.1498850933       -0.0062980481
 C         -4.3076365578        2.9545011020       -0.2351072877
 H         -6.3292070596        3.0434805460       -0.9441477638
 H         -6.4125957821        0.6459123874       -1.5162464384
 H         -4.4555789799       -0.7827135368       -1.1461379004
 H          1.7767719214       -1.5144919250        1.9993898972
 H          4.1841898488       -1.0980922900        2.1306864125
 H          6.1993778765        0.0505770393        1.3008528352
 H          7.2397457087        1.6716154930       -0.2336092720
 H          5.8706936498        2.8600310330       -1.8995804882
 H          3.4477040682        2.4369073573       -2.0471987970
 H          1.4393164210        1.2383835044       -1.2499673157
 H          0.9548742342       -3.0114831795        0.5581210066
 H         -0.5925975903       -4.9296584513        0.8294744805
 H         -3.0458144420       -4.5466894213        0.8039016253
 H         -3.9223959013       -2.2702064496        0.3745207060
 H         -2.2977182859        2.5560292112        0.4039041380
 H         -4.2613868886        4.0082735755        0.0010691867
  41
  -63.2643379500000       8.550992196853698E-002 !
 C         -5.4853340637        2.3600622299       -0.8562224223
 C         -4.2507925009        2.6757282433       -1.4010200633
 C         -3.1487298887        1.8918158153       -1.1245871373
 C         -3.2625859704        0.7727273719       -0.2986123958
 C         -2.0801737301       -0.0266951519       -0.0303569196
 N         -0.8463510044        0.5175410723       -0.0895098056
 C          0.0305056398       -0.4119266267        0.2329741513
 C          1.4600509248       -0.1703212257        0.3230521177
 C          2.2459941073       -0.7502267394        1.3450453031
 C          3.5853383363       -0.4987997591        1.4169005528
 C          4.2194333624        0.3479064627        0.4834092689
 C          5.6023016900        0.6169991141        0.5295987149
 C          6.1803402610        1.4560433724       -0.3816001743
 C          5.4010155089        2.0647316248       -1.3789264850
 C          4.0579273566        1.8250574254       -1.4494509541
 C          3.4300103423        0.9619166671       -0.5252362981
 C          2.0523828551        0.6867098004       -0.5778785345
 N         -0.5956394561       -1.6028675345        0.4789280065
 C         -0.1059540148       -2.8502942675        0.7252261349
 C         -0.9573846272       -3.8951996511        0.8643716536
 C         -2.3547803651       -3.7063662933        0.7215029689
 C         -2.8468212147       -2.4684797903        0.4326848932
 C         -1.9669160529       -1.3795199913        0.3120030014
 C         -4.5035746048        0.4766139573        0.2637619094
 C         -5.6043672801        1.2634609216       -0.0185200256
 H         -6.3488608730        2.9711106712       -1.0749621504
 H         -4.1503268886        3.5375689377       -2.0451394567
 H         -2.1809658139        2.1279040630       -1.5399058208
 H          1.7736316478       -1.3615594766        2.1008935891
 H          4.1806762283       -0.9413387910        2.2034182586
 H          6.1974497143        0.1455963053        1.2990392000
 H          7.2406758053        1.6590242767       -0.3410094803
 H          5.8757217346        2.7261262818       -2.0891070492
 H          3.4530689542        2.2916466709       -2.2135905437
 H          1.4433546859        1.1512003644       -1.3384547228
 H          0.9664312491       -2.9536361753        0.7702416054
 H         -0.5666694068       -4.8798009443        1.0633743835
 H         -3.0144104371       -4.5538067021        0.8193675052
 H         -3.9004372689       -2.3085083782        0.2717453178
 H         -4.6022335210       -0.3520174616        0.9490603960
 H         -6.5608957481        1.0234337211        0.4232303099
  41
  -63.2643286200000       8.466983998256598E-002 !
 C         -5.4457664222        2.3767457212       -0.9469209120
 C         -5.5893874384        1.3024475164       -0.0849761449
 C         -4.5016616361        0.5112941879        0.2340662454
 C         -3.2492859612        0.7800432989       -0.3159532957
 C         -2.0779085773       -0.0244063828       -0.0168078077
 N         -0.8390934566        0.5052818123       -0.0941510993
 C          0.0301251141       -0.4226568434        0.2525344707
 C          1.4609266928       -0.1856887299        0.3280406767
 C          2.2574834785       -0.7553725115        1.3476489975
 C          3.5974420695       -0.5035184074        1.4029783034
 C          4.2219788417        0.3354949281        0.4559955019
 C          5.6045119006        0.6069706711        0.4866019892
 C          6.1719031920        1.4421977415       -0.4349662307
 C          5.3819130647        2.0438398602       -1.4276785652
 C          4.0387645597        1.7999099095       -1.4845172100
 C          3.4218716898        0.9410339732       -0.5492800181
 C          2.0444274454        0.6630564176       -0.5865924742
 N         -0.6068234340       -1.6000069552        0.5341224450
 C         -0.1300989789       -2.8454338045        0.8132585693
 C         -0.9919620794       -3.8765757926        0.9873471189
 C         -2.3879557496       -3.6766036769        0.8480978486
 C         -2.8677179431       -2.4423596736        0.5248812346
 C         -1.9767834306       -1.3675423721        0.3660902369
 C         -3.1106826730        1.8780359108       -1.1664059719
 C         -4.1993344245        2.6667209524       -1.4790079456
 H         -6.2994011638        2.9906258845       -1.1945767224
 H         -6.5554263893        1.0836810018        0.3476283534
 H         -4.6205335566       -0.2991096719        0.9371924048
 H          1.7935111573       -1.3592890034        2.1143264148
 H          4.2007336210       -0.9381931438        2.1878216284
 H          6.2081249646        0.1430414153        1.2540250510
 H          7.2321983052        1.6464222698       -0.4061607261
 H          5.8478498200        2.7016880915       -2.1469479913
 H          3.4258365158        2.2600540251       -2.2462009081
 H          1.4277620597        1.1207589133       -1.3449174607
 H          0.9411117699       -2.9611823656        0.8549050062
 H         -0.6101167239       -4.8593335020        1.2115139377
 H         -3.0563919422       -4.5131529557        0.9747119002
 H         -3.9200077243       -2.2757267304        0.3639038347
 H         -2.1337596012        2.0939013948       -1.5700150689
 H         -4.0793054976        3.5115698034       -2.1418005189
  41
  -63.2641814000000       7.245545890921459E-002 !
 C         -5.3656326697        2.4941645522       -0.7735632341
 C         -5.4804819471        1.1379157230       -1.0284789228
 C         -4.4152532341        0.2888934601       -0.7925828986
 C         -3.2162345932        0.7876242248       -0.2860030861
 C         -2.0626735956       -0.0590294748       -0.0377521782
 N         -0.8174412699        0.4580453328       -0.0573161088
 C          0.0414505055       -0.5131203941        0.1853916329
 C          1.4716030381       -0.2824916396        0.2694290302
 C          2.3075144741       -1.0095147047        1.1477433944
 C          3.6431821628       -0.7382809540        1.2176267135
 C          4.2238484463        0.2827410425        0.4362688850
 C          5.5987141225        0.5870936814        0.4949303442
 C          6.1193257282        1.6072599052       -0.2513726329
 C          5.2886279645        2.3676632669       -1.0905005625
 C          3.9530092711        2.0930532687       -1.1745222068
 C          3.3837497472        1.0456427737       -0.4179237805
 C          2.0145435269        0.7373726145       -0.4829899651
 N         -0.6139607549       -1.7012534604        0.3605975141
 C         -0.1649741999       -2.9787737190        0.5168735658
 C         -1.0493643350       -3.9913965174        0.6864006198
 C         -2.4427905444       -3.7326061611        0.7014046549
 C         -2.8987285775       -2.4699206722        0.4660408738
 C         -1.9822464783       -1.4287051680        0.2416281574
 C         -3.1051675166        2.1585338906       -0.0476225394
 C         -4.1705213873        3.0020790064       -0.2890434065
 H         -6.2006591622        3.1533372552       -0.9610471621
 H         -6.4047867288        0.7397909429       -1.4226694132
 H         -4.5062288960       -0.7594529777       -1.0332485661
 H          1.8806679895       -1.7543772745        1.8033628597
 H          4.2763112508       -1.2968966080        1.8929692107
 H          6.2333304828        0.0014793302        1.1453572969
 H          7.1732467244        1.8387054975       -0.1992398661
 H          5.7177029340        3.1727473854       -1.6692473203
 H          3.3088357686        2.6736258916       -1.8190283428
 H          1.3663121735        1.3114663024       -1.1272932700
 H          0.9012851522       -3.1321548911        0.4759688080
 H         -0.6889670046       -4.9996326638        0.8109482033
 H         -3.1295388684       -4.5442214272        0.8810768629
 H         -3.9529626372       -2.2467083319        0.4581489454
 H         -2.1672039098        2.5390476603        0.3258331407
 H         -4.0721776406        4.0612141840       -0.0988761722
  41
  -63.2634456900000       3.326306047979687E-002 !
 C         -5.3813408692        2.4697476724       -0.9084671406
 C         -4.0769361232        2.9381449548       -0.9302050829
 C         -3.0297948966        2.0899643270       -0.6366688265
 C         -3.2582034496        0.7479601673       -0.3148844117
 C         -2.1032456168       -0.0832444097       -0.0205149016
 N         -0.8676536257        0.4611949209       -0.0954106825
 C          0.0168589619       -0.4570087729        0.2266435256
 C          1.4452553204       -0.2011852457        0.2987292692
 C          2.2474802987       -0.7662520294        1.3163506789
 C          3.5828270491       -0.4929182904        1.3787161622
 C          4.1959953204        0.3657090755        0.4421127959
 C          5.5731412741        0.6618525183        0.4826072887
 C          6.1294597027        1.5169621413       -0.4274455977
 C          5.3333637252        2.1139953644       -1.4180711781
 C          3.9952502479        1.8456908516       -1.4845696857
 C          3.3896406897        0.9662221125       -0.5612515912
 C          2.0172224531        0.6645274333       -0.6070119461
 N         -0.6014439269       -1.6446227887        0.5013265492
 C         -0.0915111460       -2.8803815197        0.7623332318
 C         -0.9255275399       -3.9249796150        0.9808249150
 C         -2.3281399298       -3.7360212941        0.9263525027
 C         -2.8396255317       -2.5132762103        0.6075142798
 C         -1.9791527741       -1.4289893766        0.3599363068
 C         -4.5748552905        0.2894106404       -0.3005730804
 C         -5.6218696344        1.1437802708       -0.5925913664
 H         -6.2036303239        3.1321353147       -1.1362416988
 H         -3.8791877430        3.9712615273       -1.1775163330
 H         -2.0107545906        2.4427347787       -0.6477098477
 H          1.7909716042       -1.3849397671        2.0756280568
 H          4.1903280756       -0.9247363474        2.1616095192
 H          6.1814257556        0.2018174524        1.2486461544
 H          7.1856500373        1.7412074651       -0.3904430060
 H          5.7905035461        2.7890666497       -2.1269195433
 H          3.3779331977        2.3030056798       -2.2441193714
 H          1.3957851825        1.1164812076       -1.3652206864
 H          0.9827472013       -2.9741536568        0.7589510769
 H         -0.5200506211       -4.9017125731        1.1880551096
 H         -2.9817165856       -4.5715670594        1.1189466613
 H         -3.9044761585       -2.3719834206        0.5403280581
 H         -4.7961873178       -0.7380190479       -0.0648233005
 H         -6.6357714113        0.7697526406       -0.5735596570
