  41
        -63.26481320
 C         -5.8509683540        2.1239930094       -0.3031416671
 C         -4.6742561411        2.6995447573       -0.7559632927
 C         -3.4807982403        2.0141251348       -0.6507188066
 C         -3.4437704172        0.7359191543       -0.0919676887
 C         -2.1674468793        0.0493536970        0.0047440613
 N         -1.0122327685        0.7424966335        0.0703993395
 C         -0.0158692351       -0.1182096375        0.1434081869
 C          1.3766418504        0.2862834465        0.2049328093
 C          1.6791082007        1.4901917646        0.8849192460
 C          2.9628192357        1.9373337245        0.9722838368
 C          4.0249038155        1.2165980649        0.3825084069
 C          5.3641102335        1.6463468240        0.4643828962
 C          6.3651370089        0.9338219541       -0.1360272080
 C          6.0702621231       -0.2391853908       -0.8477711362
 C          4.7813820227       -0.6837985004       -0.9429925016
 C          3.7266950781        0.0252260516       -0.3295645671
 C          2.3909637017       -0.4143934497       -0.4077961996
 N         -0.4869790238       -1.4023731629        0.1388779141
 C          0.1377319984       -2.6026782274        0.2995122078
 C         -0.5811161397       -3.7502862200        0.2523357022
 C         -1.9809316456       -3.7119606056        0.0312420394
 C         -2.6194634896       -2.5116586452       -0.0630823167
 C         -1.8800631965       -1.3205319727        0.0347504734
 C         -4.6283474271        0.1745788209        0.3819786231
 C         -5.8211611868        0.8644304849        0.2714374147
 H         -6.7858999341        2.6582864448       -0.3889793616
 H         -4.6911526151        3.6870315908       -1.1946122154
 H         -2.5563304333        2.4501136751       -0.9962969998
 H          0.8607025888        2.0373404241        1.3259880286
 H          3.1885829291        2.8551800872        1.4964113681
 H          5.5852306745        2.5521863716        1.0110993628
 H          7.3897580057        1.2694140134       -0.0693882202
 H          6.8721953145       -0.7880995437       -1.3196366802
 H          4.5511844831       -1.5875115363       -1.4898999838
 H          2.1806213567       -1.2959560516       -0.9975994579
 H          1.1998918331       -2.5792253698        0.4833477970
 H         -0.0836839076       -4.6978581590        0.3805004513
 H         -2.5291833598       -4.6373024935       -0.0457397702
 H         -3.6836187937       -2.4527146940       -0.2227863823
 H         -4.6127212355       -0.7899607478        0.8665491322
 H         -6.7331604096        0.4193123054        0.6430986901
