44
 energy: -64.772206626655 gnorm: 0.000040347938 xtb: 6.7.1 (edcfbbe)
C           -5.67990641053672        0.00168178001505        0.00017198937881
C           -4.98238612241642        0.65733895901751       -1.00178693565796
C           -3.60108155285671        0.66271900017655       -1.00035418632928
C           -2.88630146549615        0.00083941910553        0.00093209367483
C           -1.42304691514239        0.00040251295464        0.00122860864364
C           -0.71314106642802       -1.24084819182092       -0.02593446018071
C           -1.37722419375065       -2.46463064807862       -0.12573089588838
C           -0.68447157717799       -3.67486856833648       -0.07712629965177
C            0.68285443322121       -3.67521737600725        0.07726623754821
C            1.37612705008765       -2.46530397731131        0.12639391389701
C            0.71253049195590       -1.24119354487519        0.02739464823950
C            1.42304296493886       -0.00029399121630        0.00095183510664
C            2.88632659725566       -0.00075657512890        0.00058726059215
C            3.60203939454407        0.65902149327777        1.00256628245705
C            4.98334833487725        0.65259719093522        1.00333361324929
C            5.67989643282034       -0.00196971286767       -0.00001081627566
C            4.98235656528233       -0.65590230031165       -1.00308174526240
C            3.60104589382885       -0.66111963520326       -1.00172295600202
C            0.71316084269151        1.24096452179257       -0.02504298088074
C            1.37731235891566        2.46478988917126       -0.12387489253158
C            0.68462549011345        3.67501356280473       -0.07416050115088
C           -0.68266402894926        3.67527339416370        0.08056230859876
C           -1.37598683653379        2.46534934911145        0.12888488925882
C           -0.71249984079379        1.24128917720702        0.02859100292671
C           -3.60201572173596       -0.66058051393110        1.00185064376017
C           -4.98332463040765       -0.65437519107102        1.00252097739310
H           -6.75979436128629        0.00197475812834       -0.00013954953503
H           -5.51917741297631        1.16561879353963       -1.78983523592299
H           -3.05955097636656        1.15948499295978       -1.79271840509202
H           -2.44955099807574       -2.47917641410087       -0.24704731124510
H           -1.23087242057458       -4.60346581310927       -0.14921993975723
H            1.22884635786247       -4.60408727087905        0.14892442077740
H            2.44847252984267       -2.48032951303903        0.24750037238104
H            3.06124452594420        1.15493704222048        1.79596398476490
H            5.52089853726209        1.15916544988917        1.79196252838703
H            6.75978361839996       -0.00247624281275       -0.00021605610310
H            5.51912968597542       -1.16295159511982       -1.79193105061637
H            3.05947634137853       -1.15658290586618       -1.79487536451920
H            2.44963153666842        2.47933744457013       -0.24529644753464
H            1.23103726389075        4.60365418658849       -0.14563464328413
H           -1.22860290394986        4.60410623521087        0.15313027064140
H           -2.44828659407994        2.48035414474938        0.25040826044756
H           -3.06122914050158       -1.15759761426258        1.79456116404304
H           -5.52084847155705       -1.16232760894330        1.79027697233111
