44
 energy: -64.772205124636 gnorm: 0.000045512927 xtb: 6.7.1 (edcfbbe)
C           -5.67950665806784        0.00002531366778        0.00119702952556
C           -4.98270173123040       -0.63320883406728       -1.01551567807993
C           -3.60130848494116       -0.63954018736446       -1.01437030757114
C           -2.88650331325672       -0.00004943726284        0.00094478455950
C           -1.42266268863061       -0.00007316352260        0.00080724150555
C           -0.71302645875010       -1.24137641296629        0.01985510861194
C           -1.37791702808125       -2.46563868347689        0.10701302670824
C           -0.68447405205120       -3.67562437383652        0.05822806519691
C            0.68422514985295       -3.67514580374125       -0.08277324998531
C            1.37770365049164       -2.46486623171106       -0.12303116307882
C            0.71285229611935       -1.24122901921821       -0.02723202616160
C            1.42252128974949       -0.00010648575779        0.00056816423878
C            2.88635866445914       -0.00011667288796        0.00043132175574
C            3.60115174830477       -0.64685243140135        1.01115739709746
C            4.98254432722696       -0.64056620511350        1.01234559913963
C            5.67936569286724       -0.00010754107304        0.00017951655572
C            4.98235781532736        0.64034437435654       -1.01186245511606
C            3.60096580556180        0.64662115282275       -1.01042536685503
C            0.71288532199051        1.24103465033603        0.02849120091430
C            1.37777803928659        2.46465408786951        0.12418646778591
C            0.68432423114134        3.67494391173668        0.08404015534802
C           -0.68439668250472        3.67545477420212       -0.05674191397933
C           -1.37787328506466        2.46549116144538       -0.10541642640068
C           -0.71299994384362        1.24121533701749       -0.01836320901821
C           -3.60109170172183        0.63947673247579        1.01639021654269
C           -4.98248407545989        0.63321996692923        1.01778507386713
H           -6.75940209430666        0.00005585968702        0.00129302553707
H           -5.51998209232583       -1.12319155745169       -1.81473125848837
H           -3.05990625436712       -1.11973194654379       -1.81698266727374
H           -2.45132592646827       -2.48070701927902        0.21842336336574
H           -1.23138957998389       -4.60461301551736        0.12070550970945
H            1.23111472768330       -4.60368642845654       -0.15179729141649
H            2.45111044824278       -2.47918429917611       -0.23455994983279
H            3.05973985518121       -1.13273953110132        1.81032854318354
H            5.51981272447959       -1.13625626062090        1.80804235856099
H            6.75926129878017       -0.00010206107602        0.00008366549619
H            5.51947956137541        1.13603952949046       -1.80765465549242
H            3.05940669082758        1.13250434219189       -1.80949856886054
H            2.45120514657357        2.47894573208699        0.23554917755976
H            1.23124644950625        4.60347450919807        0.15297713456612
H           -1.23130058403414        4.60445884079386       -0.11913083037954
H           -2.45130146021928        2.48058376170967       -0.21666078969944
H           -3.05951824151181        1.11963951564905        1.81890450529779
H           -5.51959448046865        1.12323265943851        1.81709674890115
