  44
        -64.83614667
 C         -5.6739018108       -0.0009345943        0.0012345114
 C         -4.9809011778       -0.4113258847       -1.1253333819
 C         -3.5977491319       -0.4132891403       -1.1280459414
 C         -2.8906504080        0.0000539009       -0.0032867061
 C         -1.4119360751        0.0002424423       -0.0040140372
 C         -0.7144945438       -1.2157596328        0.0038459361
 C         -1.3907016093       -2.4637584398        0.0426544121
 C         -0.7048902297       -3.6388066838        0.0298082424
 C          0.7030740561       -3.6391605746       -0.0299664892
 C          1.3898788372       -2.4647018442       -0.0484178162
 C          0.7152199339       -1.2158324158       -0.0105380704
 C          1.4128673031        0.0004503660       -0.0021044814
 C          2.8911710135        0.0005429278       -0.0017775030
 C          3.5965750069       -0.4419112968        1.1132139544
 C          4.9796509881       -0.4407033541        1.1129492193
 C          5.6749292795       -0.0011567627       -0.0012310195
 C          4.9806470856        0.4392719289       -1.1156163567
 C          3.5974825607        0.4422676930       -1.1164028751
 C          0.7150049422        1.2165742033        0.0078066648
 C          1.3895100065        2.4652667522        0.0532322551
 C          0.7024837261        3.6396912386        0.0424669398
 C         -0.7053748654        3.6394223870       -0.0204944764
 C         -1.3909104159        2.4643967951       -0.0432407959
 C         -0.7146427056        1.2163171669       -0.0087110351
 C         -3.5944636907        0.4130612833        1.1236773304
 C         -4.9775797953        0.4100836177        1.1255179538
 H         -6.7539879969       -0.0015745891        0.0032140494
 H         -5.5201094800       -0.7318622265       -2.0050626521
 H         -3.0544873955       -0.7307653475       -2.0068339317
 H         -2.4698012643       -2.4633598224        0.0865840711
 H         -1.2337008660       -4.5802640314        0.0617218807
 H          1.2313947609       -4.5809870571       -0.0573939104
 H          2.4688252925       -2.4664250525       -0.0942350536
 H          3.0516923991       -0.7813158645        1.9827383162
 H          5.5170497376       -0.7842374663        1.9850403719
 H          6.7550179355       -0.0020429631       -0.0009743388
 H          5.5187147714        0.7826079354       -1.9873195866
 H          3.0535822084        0.7830284308       -1.9859817430
 H          2.4684250104        2.4667166841        0.1008173538
 H          1.2304613248        4.5814346936        0.0786620008
 H         -1.2342906372        4.5809562563       -0.0460395482
 H         -2.4698822986        2.4641634439       -0.0898127202
 H         -3.0485156582        0.7307621947        2.0006762032
 H         -5.5139421831        0.7295651732        2.0072493630
