44
 energy: -64.836157568415 gnorm: 0.000036476390 xtb: 6.7.1 (edcfbbe)
C           -5.67441186389159        0.00010673349780        0.00123058526584
C           -4.97993155076051       -0.40705082649179       -1.12560725978411
C           -3.59676839485482       -0.40967657107135       -1.12626516098535
C           -2.89107975407593       -0.00013174316702        0.00078793101574
C           -1.41238696367709       -0.00012379961669        0.00058611644123
C           -0.71496856788902       -1.21622370180159        0.00271183251020
C           -1.39040423069787       -2.46478271294147        0.03504452699425
C           -0.70380275233870       -3.63931530643564        0.01539616584788
C            0.70430852804466       -3.63897714069998       -0.04244564282964
C            1.39056787323752       -2.46414949065939       -0.05332408962718
C            0.71471114532627       -1.21609743733138       -0.01159354257912
C            1.41200309972566       -0.00006298678821        0.00037492186756
C            2.89077942780130       -0.00006204837241        0.00033998355785
C            3.59619618807867       -0.41305297668009        1.12625982779221
C            4.97936799354199       -0.41056103802806        1.12581190274663
C            5.67401013373534       -0.00017002815626        0.00025840877647
C            4.97931473869170        0.41029606453254       -1.12526209457484
C            3.59616264810498        0.41290102108487       -1.12563598809192
C            0.71466416412192        1.21593938100597        0.01250686013411
C            1.39047047999719        2.46401195297674        0.05439377166177
C            0.70415269478652        3.63881173982786        0.04406636488734
C           -0.70396429585834        3.63910729113128       -0.01354145779012
C           -1.39051346298852        2.46454859938064       -0.03352090234995
C           -0.71502080460215        1.21600957330574       -0.00158132991522
C           -3.59636423411727        0.40951846861169        1.12807312442530
C           -4.97951177495119        0.40714581841674        1.12786225673882
H           -6.75450433768511        0.00024008560316        0.00137324302143
H           -5.51784419997426       -0.72431687313022       -2.00725146381819
H           -3.05237899342455       -0.72467967649930       -2.00522362553463
H           -2.46952617192044       -2.46557152697663        0.07853027766248
H           -1.23219495207930       -4.58118617575757        0.04066713669505
H            1.23291436786484       -4.58051792219983       -0.07462134415389
H            2.46970503165921       -2.46410396573512       -0.09665540767705
H            3.05160128171291       -0.73075855208449        2.00411684880933
H            5.51711550559780       -0.73048409491952        2.00659701812175
H            6.75410303979238       -0.00022129344609        0.00018336337793
H            5.51708982197667        0.73014312487917       -2.00605969307827
H            3.05149918094878        0.73062566587046       -2.00344319356180
H            2.46961893837603        2.46400508788777        0.09743041260025
H            1.23272258085694        4.58036408699594        0.07645200889487
H           -1.23241889326039        4.58095717867360       -0.03836764168728
H           -2.46964037989643        2.46530588381382       -0.07687619762889
H           -3.05159240968253        0.72441407280411        2.00683569638603
H           -5.51710584603385        0.72452859928104        2.00966202615595
