119
 energy: -190.329586328802 gnorm: 0.000088188856 xtb: 6.7.1 (edcfbbe)
C           -0.02384236941786       -7.90380754323399        0.24018052524693
C            1.17855966249098       -7.21645984522421        0.30424727555940
C            1.18874818949008       -5.83549424548496        0.28998476462167
C           -0.01137906905387       -5.13080143693366        0.21070120454027
C           -0.00581812363524       -3.67000366037786        0.19090802687725
N           -1.18022294202530       -3.04387489882769        0.12235527358412
C           -1.12580343157255       -1.71886405105972        0.08766249702391
C           -2.36370599512366       -0.94430661075243       -0.00234337439361
C           -3.59656343725850       -1.52940758773390        0.25366056005732
C           -4.75025329357786       -0.75508018701957        0.18503044665869
N           -5.99646147474376       -1.33832148884213        0.43266334675273
C           -6.44640388268513       -2.52981105092879       -0.10712851386755
C           -5.83770505990357       -3.37083850746123       -1.02759922664441
C           -6.52803565178539       -4.50057517219410       -1.42388713141692
C           -7.79824069993549       -4.78868376031018       -0.93012609556484
C           -8.41962057146820       -3.94178555980008       -0.03440128931949
C           -7.74477926629632       -2.80118191227204        0.38007463802835
C           -8.08432057582447       -1.72159607621983        1.26473211547211
C           -9.19851072926256       -1.44553896535479        2.04590356223328
C           -9.19354723946321       -0.30666744138245        2.82602878265366
C           -8.08857557096696        0.54081216269152        2.84660795473647
C           -6.96874355035190        0.28699844882608        2.07749801449299
C           -6.97912463535291       -0.84049406718330        1.26905083424595
C           -4.66362560438681        0.60270957340619       -0.11330564561899
C           -3.42370716789237        1.18802582800994       -0.35798916103852
N           -3.31674902435666        2.55553479244123       -0.62307227990245
C           -4.10324770830200        3.28989386386080       -1.49112872766999
C           -5.10284920334622        2.86639141926861       -2.35487814051503
C           -5.71594729020739        3.81696450677707       -3.14916097610275
C           -5.34283134662066        5.15774150640382       -3.09867328383112
C           -4.33049828518223        5.58077018367265       -2.26052706921633
C           -3.69988627094897        4.64410944960446       -1.45270167875812
C           -2.62020948601093        4.72422663571311       -0.50829775896312
C           -1.85174073339264        5.77632607839962       -0.02881826633575
C           -0.87895302017748        5.50984752594110        0.91298864420455
C           -0.67779833236085        4.21630585737365        1.38580079766546
C           -1.43877320709236        3.15558990392350        0.93304803136824
C           -2.40503332445113        3.41306611350398       -0.02871429423229
C           -2.27703061137761        0.40606847973959       -0.32199539919161
N            0.00110827551160       -1.01881418140252        0.13241534790703
C            1.12530487157916       -1.72172930537418        0.20914094137028
C            2.36758381503337       -0.94851900959400        0.22562766722972
C            2.28219612043152        0.43533377964850        0.33079330327621
C            3.42926683891303        1.21438352096124        0.25457064546041
N            3.31414970072767        2.60694949548390        0.27705015601988
C            4.09100594346821        3.48842218654562        1.00534721171405
C            5.08724680429424        3.23214389162792        1.93534863700396
C            5.69255103324402        4.31040829082761        2.55210852043064
C            5.31278542866394        5.61880889121800        2.26404719482258
C            4.30233722941906        5.88048852742651        1.36023174668137
C            3.68121148809228        4.81225462990249        0.72732066784780
C            2.60685366619681        4.71791899521520       -0.22151367427897
C            1.83554487672339        5.66545213270449       -0.88070002501930
C            0.86920698121191        5.23294837845764       -1.76566929048637
C            0.67916273377450        3.87553544813551       -2.00706535015198
C            1.44401392615257        2.91504100496155       -1.37318921126815
C            2.40224476623238        3.34155341365144       -0.46492158716242
C            4.66917317472178        0.59762441445869        0.10535325293572
C            4.75658466942167       -0.79150161792873        0.04494536126861
N            6.00366373421766       -1.40562578409714       -0.11596616609544
C            7.14054310964693       -1.14952659733493        0.62642399778799
C            7.31235232273482       -0.31778759440788        1.72262288715894
C            8.56362256875639       -0.26462718852615        2.30590187023219
C            9.62308464566830       -1.02850128951262        1.82222916235098
C            9.45123587728661       -1.88156966688285        0.75042922790390
C            8.20223450021787       -1.95017720230018        0.14774577050630
C            7.67208745997204       -2.72319421983003       -0.94061045509063
C            8.22627765407868       -3.66002119276792       -1.80291319725342
C            7.42463646542034       -4.21456162005239       -2.78033101832280
C            6.09134797737184       -3.83386813708036       -2.91318264985309
C            5.51797473040019       -2.90319087269137       -2.06775314666132
C            6.31192733264067       -2.36090962371152       -1.06762511942156
C            3.60448454553770       -1.56850867667057        0.10199617673208
N            1.17181975095298       -3.04753783822280        0.23379133796094
C           -1.21790646461491       -5.82636636020224        0.14566108891812
C           -1.22009129109626       -7.20728905678886        0.16095836558341
H           -0.02861999082448       -8.98392397122067        0.25180472335753
H            2.10900126541932       -7.76148586949918        0.36542763251111
H            2.11442089657978       -5.28399155972482        0.33986801146052
H           -3.64359056380856       -2.57034223597371        0.52925739823295
H           -4.86149579627803       -3.14994761974104       -1.43181844133498
H           -6.07285543915625       -5.17342153188175       -2.13570345390062
H           -8.30357101207747       -5.68320285586224       -1.26253872709875
H           -9.41065098752144       -4.15524983281905        0.33655772053980
H          -10.04606862507059       -2.11407906438165        2.04394212753991
H          -10.05072555577037       -0.07148735997683        3.43905631183139
H           -8.10437040954980        1.41464206501927        3.48108652699247
H           -6.11083996083507        0.94067010772274        2.12240077488243
H           -5.55993787190352        1.20221292953400       -0.14990343956475
H           -5.38649362938063        1.82691674786752       -2.42199374080440
H           -6.49894362414481        3.51126104568259       -3.82730505712996
H           -5.84787143016068        5.87026432075719       -3.73364266386544
H           -4.02784944571201        6.61666674072319       -2.23422671100640
H           -2.01925655033219        6.78122215865033       -0.38584636479149
H           -0.26689417764680        6.31169013686072        1.29692361296141
H            0.08700333941757        4.03934376375777        2.12763324164741
H           -1.29130249929872        2.16353519103562        1.33192429114768
H           -1.31492934369339        0.83310372228580       -0.55170816637195
H            1.31757604340043        0.89279162186815        0.47479106163682
H            5.37429823518152        2.22316290349045        2.18676719955264
H            6.47377662453438        4.13334629880397        3.27647961065916
H            5.81077015522228        6.43543301255625        2.76507063955171
H            3.99412759015857        6.89353159431868        1.15020398837139
H            1.99605495777892        6.71816881705922       -0.70381828783819
H            0.25413566892885        5.95145514186964       -2.28562393389457
H           -0.07973917131541        3.56669422607305       -2.71085140063751
H            1.30545219558304        1.86822671223145       -1.59647876086323
H            5.56183827665684        1.19508638665743       -0.00167460058167
H            6.49136586729659        0.25749250474929        2.12191472215254
H            8.72192449105325        0.37951532202060        3.15821089828682
H           10.58726177539097       -0.95771120897384        2.30306467543807
H           10.26675039647969       -2.48878928532415        0.38772618595117
H            9.26412771095066       -3.94186204111318       -1.70930176431756
H            7.83462856131019       -4.94693103825512       -3.45968836612217
H            5.49208172790210       -4.27319938658331       -3.69700320936879
H            4.48854001182425       -2.60364264203560       -2.19291541373224
H            3.65762674312899       -2.64389804858746        0.05391521024193
H           -2.13868853324082       -5.26792130641158        0.08251335418934
H           -2.15539067238394       -7.74511236148380        0.11099503204923
