119
 energy: -190.257043232279 gnorm: 0.000150015133 xtb: 6.7.1 (edcfbbe)
C           -0.02270020045922       -7.96335105518325        0.37566905667008
C            1.18134238455255       -7.27685980069375        0.40323175374144
C            1.19276013763908       -5.89617097888245        0.36480988065301
C           -0.00613570776455       -5.19058937004195        0.29780062783837
C            0.00159455100547       -3.72605868315185        0.25262161365073
N           -1.16476392605673       -3.10022076931913        0.19651233887017
C           -1.13404147876742       -1.73537725446959        0.11354058217389
C           -2.34752271911914       -0.97275747344752        0.00345768499751
C           -3.60728592839030       -1.54953742849581        0.19414216387064
C           -4.74534844092855       -0.76173633267949        0.11663086038766
N           -6.00594041473804       -1.34558055415835        0.31136232380860
C           -6.45943535714498       -2.49485537858546       -0.30345072035827
C           -5.84290378026183       -3.28739600569495       -1.26218944976634
C           -6.53706891292447       -4.38516541603723       -1.73405335454541
C           -7.81764594717615       -4.68817657895674       -1.27709119234609
C           -8.44595344951177       -3.88934440948616       -0.34106852147371
C           -7.76795299607258       -2.78245291034531        0.14970997702368
C           -8.10763018011430       -1.75306194889153        1.09318155715464
C           -9.22800844213404       -1.50655452297083        1.87377455736204
C           -9.21853098150696       -0.41288511553957        2.71807421292922
C           -8.10404387298053        0.41838554284421        2.80062839500107
C           -6.97703911318529        0.19355855027346        2.03316686336190
C           -6.99030612155147       -0.88811315216060        1.16305811429705
C           -4.65069907341466        0.60759955722014       -0.13162444981807
C           -3.39320961547134        1.18250081135540       -0.32380157638358
N           -3.26429856085993        2.55811177329562       -0.56221249388413
C           -3.99892600625915        3.30661657133090       -1.45838464259639
C           -4.97548564541154        2.90357788265084       -2.35915209598278
C           -5.54044281094817        3.86683090635320       -3.17327489594473
C           -5.14325939453755        5.20014738955460       -3.10651555004235
C           -4.15366096208010        5.60330583453445       -2.23052993330675
C           -3.57123644605489        4.65418046871919       -1.40283472217382
C           -2.52289538036786        4.70948785287242       -0.42161341313615
C           -1.74117890456312        5.73989467260163        0.07967961331987
C           -0.79729688750079        5.44589999431004        1.04483600767240
C           -0.64167709075803        4.14702932556020        1.52006490809164
C           -1.42067490808039        3.10760991304045        1.04884521265353
C           -2.35550328945908        3.39130823226264        0.06193758806392
C           -2.25726156317149        0.39702472663713       -0.27715871752940
N            0.00323381639262       -1.07219064169897        0.13653705862666
C            1.14551928788423       -1.73766943366009        0.22596463468130
C            2.35449922208577       -0.97230841699493        0.24024564328027
C            2.26288916755222        0.42659857909238        0.31765476601262
C            3.39313655493996        1.21545540452714        0.23101180555274
N            3.25249082280853        2.61093599136731        0.23058676554285
C            3.99414251933977        3.51381255354840        0.96322109987065
C            4.98842898953592        3.28786091198248        1.90478625245227
C            5.55844863130516        4.38435272375020        2.52270086680879
C            5.14723909045125        5.68104018861205        2.22442640019768
C            4.13937199600331        5.91298023139392        1.30771804391907
C            3.55346509112585        4.82690458700733        0.67395374877773
C            2.49067974955814        4.69787111060753       -0.28468107167340
C            1.69265005729037        5.61661800579806       -0.94981620865056
C            0.73979994254860        5.14848677739131       -1.83434455635369
C            0.59151192232275        3.78471038693454       -2.06872204026225
C            1.38655839536815        2.85167578222127       -1.43084647309910
C            2.33013261156358        3.31304679868321       -0.52212891592159
C            4.65275871462319        0.62480255844966        0.10433572670263
C            4.75139171742259       -0.76751083386971        0.08100174254922
N            6.01498500496487       -1.36548296430723       -0.05009804253011
C            7.12560392238522       -1.09409940335703        0.71964597924363
C            7.25645133090501       -0.25495066643204        1.81700915923613
C            8.49147521678732       -0.18066985347578        2.43165487989932
C            9.57406988607753       -0.93008863203539        1.97737671315862
C            9.44357382383242       -1.78954562366713        0.90297042571754
C            8.21267431617175       -1.87938265923694        0.26916951591607
C            7.71965191823064       -2.66128994578017       -0.83145258795349
C            8.30251183064860       -3.59410917081131       -1.67722520433864
C            7.52712696208816       -4.16155000314153       -2.67048675617900
C            6.19214709586176       -3.79857298098049       -2.83351235456258
C            5.58986791138397       -2.87098742615381       -2.00502393580006
C            6.35749277056051       -2.31440596477568       -0.99098064998147
C            3.62124279456972       -1.56496956879368        0.14992831203670
N            1.16453421305821       -3.10655613072776        0.26466123221220
C           -1.21336241441109       -5.88466390148646        0.26935628453329
C           -1.21844008343339       -7.26543440517670        0.30873846741905
H           -0.02902300027150       -9.04316374756122        0.40623837669411
H            2.11238323135516       -7.82216481343004        0.45496821808845
H            2.12055429597026       -5.34532478107455        0.38597187812933
H           -3.67824874328909       -2.59841321859721        0.43300546348132
H           -4.85732127769546       -3.05221187724246       -1.63385513215358
H           -6.07712121814823       -5.02068062062165       -2.47629673285938
H           -8.32624841024262       -5.55640690655634       -1.66888718196853
H           -9.44410145860534       -4.11606469459273        0.00197224744918
H          -10.08489159463119       -2.16117607123224        1.82305581013670
H          -10.08107174895737       -0.20197331259647        3.33242832780748
H           -8.11873391882907        1.25540502984537        3.48289863350383
H           -6.11115638607360        0.83177952191312        2.12170356188047
H           -5.54122075856241        1.21420569457147       -0.17214340679462
H           -5.27533925771038        1.86974792500386       -2.43682679648592
H           -6.30364397003714        3.57777688712954       -3.88053981872950
H           -5.61047852882277        5.92328164368547       -3.75819115843464
H           -3.83340504673296        6.63351323325557       -2.19138893790791
H           -1.87275490567526        6.74981815569754       -0.27813436060085
H           -0.17420480214457        6.23119033919321        1.44502977659389
H            0.10051126533126        3.94889437393739        2.27925389851819
H           -1.31070457817131        2.11129969799017        1.44847643524233
H           -1.28811246935094        0.82539490584163       -0.47287165162898
H            1.29289375079838        0.87448538360651        0.45723568930295
H            5.29910827561727        2.28744853305635        2.16073789153846
H            6.33640083694237        4.23175949766442        3.25598077489719
H            5.61798339332630        6.51289601296072        2.72666021171719
H            3.80831375301041        6.91712734918169        1.08988465661281
H            1.81858780215543        6.67499173712931       -0.77909797695364
H            0.10450535896517        5.84524725329379       -2.35956307554651
H           -0.15718048689541        3.44911114741208       -2.77108392243515
H            1.28324710893501        1.79968414574616       -1.64739538896183
H            5.53546717369028        1.23279170655950       -0.01555390482123
H            6.41524356329222        0.30847916037876        2.18978697386871
H            8.61896569076440        0.46835490472036        3.28535420484911
H           10.52460148036254       -0.84353927202450        2.48218140761630
H           10.27840998513591       -2.38399264304713        0.56384046738006
H            9.34078275278356       -3.86559665041072       -1.56037137544253
H            7.96080345855456       -4.89154409620313       -3.33756211549587
H            5.61547316277076       -4.24968432744991       -3.62733298282693
H            4.55938926108815       -2.58406187342256       -2.14802608539047
H            3.70273369457054       -2.63991973722118        0.13890752002401
H           -2.13481445643779       -5.32528054908905        0.21576127213563
H           -2.15598386274942       -7.80156268142094        0.28715777313558
