  119
       -190.25343583
 C         -0.0754013754       -8.0471734671        0.1906296766
 C         -1.2688990813       -7.3424766866        0.2151216188
 C         -1.2591558463       -5.9614532892        0.1910016178
 C         -0.0493642464       -5.2728130096        0.1438206075
 C         -0.0350657014       -3.8066829968        0.1212565679
 N         -1.1995354917       -3.1801379767        0.0924218555
 C         -1.1582135154       -1.8161747163        0.0600796806
 C         -2.3499423878       -1.0208299025        0.0138286868
 C         -3.6349905518       -1.5682924640        0.1213683585
 C         -4.7377754719       -0.7307683084        0.1516451005
 N         -6.0238039362       -1.2804352110        0.2763164012
 C         -7.1047682584       -0.9957650354       -0.5297764805
 C         -7.1785739981       -0.1851885232       -1.6537444798
 C         -8.3940612694       -0.0880930523       -2.3031399332
 C         -9.5124814724       -0.7879840949       -1.8567477673
 C         -9.4386159599       -1.6206036324       -0.7558639337
 C         -8.2282645115       -1.7327407423       -0.0871787972
 C         -7.7884063043       -2.5003419449        1.0459035299
 C         -8.4211251066       -3.3930219561        1.8987860982
 C         -7.6882660387       -3.9601393207        2.9243661652
 C         -6.3465555758       -3.6358415159        3.1120875940
 C         -5.6948883105       -2.7483300810        2.2770744512
 C         -6.4198447889       -2.1929545711        1.2313207256
 C         -4.5937629071        0.6571249498        0.0876239595
 C         -3.3147969419        1.2013950589       -0.0538109107
 N         -3.1171887026        2.5894487844       -0.0926214984
 C         -3.8157425449        3.5053790419       -0.8509874641
 C         -4.8342171923        3.3031193003       -1.7719300868
 C         -5.3475681825        4.4070275475       -2.4253917913
 C         -4.8580041151        5.6878391672       -2.1819506139
 C         -3.8264632536        5.8945959225       -1.2858384699
 C         -3.2962717688        4.8007604187       -0.6175026938
 C         -2.2275244888        4.6469292073        0.3301763931
 C         -1.3571534741        5.5413112936        0.9353638053
 C         -0.4093626735        5.0521247043        1.8134674307
 C         -0.3431894927        3.6932815651        2.1070241537
 C         -1.2123794630        2.7861477726        1.5313964860
 C         -2.1443750542        3.2656923048        0.6200587418
 C         -2.2140200055        0.3702551497       -0.1180447173
 N         -0.0080502968       -1.1650774325        0.0978860485
 C          1.1268188614       -1.8390416065        0.1368561945
 C          2.3350586567       -1.0643968068        0.1374491527
 C          2.2289326520        0.3286313910        0.2708299650
 C          3.3383558596        1.1403391935        0.1386747930
 N          3.1691022802        2.5319019462        0.1771830553
 C          3.9320629073        3.4396823394        0.8809765431
 C          4.9956126488        3.2231136485        1.7458602042
 C          5.5759659854        4.3225650783        2.3489625737
 C          5.1082596055        5.6124873458        2.1109066295
 C          4.0325316741        5.8340089165        1.2719205213
 C          3.4349516076        4.7450812640        0.6542971817
 C          2.3140536255        4.6059469016       -0.2337800921
 C          1.4424774698        5.5145439593       -0.8158775203
 C          0.4451352045        5.0384151481       -1.6447645450
 C          0.3264783115        3.6771276840       -1.9097253184
 C          1.1930917298        2.7550582583       -1.3549182984
 C          2.1793810132        3.2232581986       -0.4961677774
 C          4.5965869054        0.5741602320       -0.0786211301
 C          4.7143557523       -0.8157411564       -0.1462149809
 N          5.9788144648       -1.3846112855       -0.3652086047
 C          7.1278069398       -1.0991234010        0.3403567736
 C          7.3022796789       -0.2870193981        1.4520347598
 C          8.5716698106       -0.1875314210        1.9880187054
 C          9.6458214434       -0.8865980532        1.4425954524
 C          9.4732426031       -1.7210713024        0.3543039353
 C          8.2072476423       -1.8355946483       -0.2014119745
 C          7.6682816780       -2.6022619743       -1.2914447696
 C          8.2235911550       -3.4913935975       -2.2002090843
 C          7.4035622442       -4.0549342215       -3.1595179330
 C          6.0506209788       -3.7305304682       -3.2270452542
 C          5.4748844127       -2.8465049839       -2.3344836035
 C          6.2887270047       -2.2948525408       -1.3542953847
 C          3.6017390521       -1.6344508362       -0.0402301901
 N          1.1438325258       -3.2032280810        0.1306355946
 C          1.1472050694       -5.9852714938        0.1201631451
 C          1.1310555927       -7.3662991873        0.1426219204
 H         -0.0855448205       -9.1273198359        0.2090719588
 H         -2.2086558022       -7.8740568628        0.2530976583
 H         -2.1785291215       -5.3966756529        0.2089975402
 H         -3.7513180344       -2.6389903170        0.1686013633
 H         -6.3086730036        0.3376477339       -2.0198868074
 H         -8.4776070780        0.5393545168       -3.1781029444
 H        -10.4463376043       -0.6846019060       -2.3887461810
 H        -10.3015828066       -2.1774842190       -0.4235252379
 H         -9.4643342840       -3.6349097145        1.7624534391
 H         -8.1614339231       -4.6592669223        3.5976294681
 H         -5.8041784553       -4.0857924251        3.9303524650
 H         -4.6592113954       -2.4910483211        2.4376771790
 H         -5.4570134199        1.2960623401        0.1856881326
 H         -5.2075224733        2.3143351958       -1.9853842430
 H         -6.1429829028        4.2726326318       -3.1433363460
 H         -5.2865472919        6.5262303381       -2.7104219030
 H         -3.4348685896        6.8851084192       -1.1097506782
 H         -1.4211428301        6.5969781875        0.7198695256
 H          0.2877239530        5.7279701043        2.2853946753
 H          0.4007408201        3.3404942511        2.8061292615
 H         -1.1701244295        1.7406037047        1.7948066089
 H         -1.2310130478        0.7805018449       -0.2794601124
 H          1.2634928406        0.7568482582        0.4838801500
 H          5.3532860329        2.2274424780        1.9546257561
 H          6.4078612590        4.1774006533        3.0220527743
 H          5.5896149383        6.4470707738        2.5983973124
 H          3.6592057422        6.8324073908        1.1008928252
 H          1.5455487622        6.5713328837       -0.6219882859
 H         -0.2508755873        5.7259248955       -2.1010751299
 H         -0.4571462527        3.3352572351       -2.5698897736
 H          1.1101338945        1.7065631558       -1.5961316068
 H          5.4615141110        1.1990451031       -0.2353003352
 H          6.4688587983        0.2362347776        1.8945149244
 H          8.7337178493        0.4418234061        2.8505152095
 H         10.6241312171       -0.7809356523        1.8870438804
 H         10.3030508794       -2.2772607368       -0.0547667824
 H          9.2748718886       -3.7328659298       -2.1575877843
 H          7.8156395577       -4.7514637017       -3.8743094447
 H          5.4382211973       -4.1770573758       -3.9962476886
 H          4.4293483392       -2.5885545823       -2.4039011444
 H          3.6963377293       -2.7071163532       -0.0906933726
 H          2.0770227838       -5.4388129890        0.0839736049
 H          2.0606805586       -7.9163630831        0.1228322009
