  38
        -65.56510779
 O         -1.2699302949        2.8182800814        0.0199174897
 C         -2.2975194542        1.9675195309        0.0133090534
 C         -3.5878032927        2.4768250809        0.0113139694
 C         -4.6940158155        1.6411084109        0.0061486191
 C         -4.4888305229        0.2620815410        0.0028961158
 Br        -6.0099211099       -0.8937070396       -0.0045420180
 C         -3.2355068450       -0.2913931659        0.0038374956
 C         -2.0903217962        0.5437496865        0.0081427308
 C         -0.7865701699        0.0247222970        0.0052463227
 N          0.3367040881        0.7970392008        0.0050686035
 C          1.3759118060       -0.0238329792       -0.0019232668
 C          0.9351902973       -1.3844988607       -0.0050427262
 C          1.8235705021       -2.4266732388       -0.0116341853
 C          3.2002108619       -2.1105246907       -0.0103867395
 C          3.6896960335       -0.8109488316       -0.0038533879
 C          5.1104005352       -0.5071909440        0.0020655915
 C          6.1002787606       -1.4894886314        0.0295383576
 C          7.4454886613       -1.1665248804        0.0329558502
 C          7.8526217030        0.1657978109        0.0080409961
 C          6.9095037283        1.1600404024       -0.0161733564
 C          5.5278947639        0.8574943066       -0.0167337355
 C          4.5774393536        1.8900686579       -0.0309635304
 C          3.2184066084        1.6041647519       -0.0218959786
 C          2.7743634599        0.2913708365       -0.0072167039
 N         -0.4320959204       -1.3153812895       -0.0005348566
 H         -0.4291731052        2.2827927425        0.0172319665
 H         -3.7127025775        3.5475944161        0.0139131583
 H         -5.6919061352        2.0470096123        0.0042098655
 H         -3.1238637101       -1.3640406806        0.0009883390
 H          1.5008461000       -3.4554711379       -0.0168571309
 H          3.8844663212       -2.9431715366       -0.0172224061
 H          5.8293838398       -2.5332573600        0.0510281781
 H          8.1834164439       -1.9543751863        0.0550072258
 H          8.9046258870        0.4085877807        0.0090116845
 H          7.2057413428        2.1987828896       -0.0336548413
 H          4.9147286505        2.9155020224       -0.0454217590
 H          2.4887229110        2.3995467229       -0.0281292913
 H         -1.0630313019       -2.0963460132       -0.0014541505
