  45
        -74.35569088
 O         -3.9326836515        1.5211193498        1.8588728279
 S         -3.5575592840        1.3734923549        0.4748747399
 O         -3.8607378304        2.4568460961       -0.4265049781
 C         -4.2712463200       -0.1485020271       -0.1641982887
 C         -4.8042720930       -1.0746832575        0.7101998307
 C         -5.3038367480       -2.2663967485        0.2105430985
 C         -5.2577895408       -2.5165096195       -1.1519170657
 C         -4.7195406305       -1.5793860630       -2.0202432662
 C         -4.2194512274       -0.3871435479       -1.5242014505
 C         -1.7979834229        1.0208813226        0.3781618204
 C         -1.2254297161        0.1974370536        1.3300724843
 C          0.1156081348       -0.1205649899        1.2395678717
 C          0.8806779799        0.3762583767        0.1823013931
 N          2.2334201711        0.0517887721        0.0831174004
 C          2.7733563880       -1.2193531890        0.1860474178
 C          2.1378872427       -2.4403699354        0.3562180437
 C          2.9233549125       -3.5774376726        0.3933201227
 C          4.3073377696       -3.5107018046        0.2547410241
 C          4.9424943993       -2.3009993445        0.0563948437
 C          4.1739148697       -1.1454342874        0.0154362147
 C          4.4900792447        0.2410653704       -0.1916361990
 C          5.6810038563        0.9264468647       -0.3916923189
 C          5.6379592068        2.2992970986       -0.5310323222
 C          4.4302435097        2.9885842036       -0.4547448301
 C          3.2323561747        2.3275029199       -0.2577553680
 C          3.2664575761        0.9453391051       -0.1469655646
 C          0.2869856037        1.2017716081       -0.7739075357
 C         -1.0525947109        1.5241725102       -0.6710156097
 H         -4.8325104451       -0.8397878105        1.7628447424
 H         -5.7286073762       -2.9965294859        0.8824341161
 H         -5.6477233748       -3.4453846913       -1.5406143279
 H         -4.6904524413       -1.7767240220       -3.0810495684
 H         -3.8052300292        0.3670830110       -2.1748273761
 H         -1.8319115703       -0.1620576905        2.1464005370
 H          0.5844670810       -0.7354678636        1.9923912032
 H          1.0637975784       -2.5081297982        0.4423198107
 H          2.4513271158       -4.5390286307        0.5289382803
 H          4.8863654456       -4.4209874444        0.2931591727
 H          6.0130761296       -2.2495557052       -0.0706205027
 H          6.6183593957        0.3928280014       -0.4298675307
 H          6.5516433217        2.8518255739       -0.6899776253
 H          4.4287888205        4.0644156003       -0.5465420465
 H          2.3056474446        2.8753329924       -0.1775456697
 H          0.8765536101        1.5702072252       -1.5994033579
 H         -1.5345530494        2.1684255684       -1.3895221096
