  52
        -79.22093504
 O          7.7956427422       -1.0112176627        0.4082215718
 C          7.1959251159        0.1106902863       -0.1944843794
 C          5.6885487344        0.0993739930       -0.1513149279
 C          5.0127429429       -0.5990305894        0.8428020192
 C          3.6337694811       -0.6110345567        0.8839818997
 C          2.8815550318        0.0941614202       -0.0606542497
 C          1.4236123385        0.0922449161       -0.0174611221
 C          0.7133786590        1.3309528102        0.0313761272
 C          1.3773267694        2.5563133743        0.1331384458
 C          0.6850330528        3.7657077642        0.0891443129
 C         -0.6838952992        3.7658967176       -0.0627163266
 C         -1.3769792874        2.5568687555       -0.1033009556
 C         -0.7137710542        1.3312469795        0.0008202235
 C         -1.4236321779        0.0924664775        0.0488393356
 C         -2.8821743377        0.0923822270        0.0735349978
 C         -3.5877319805        0.8020873065        1.0516901637
 C         -4.9665873540        0.7955693125        1.0756964850
 C         -5.6901291812        0.0984170776        0.1139479056
 C         -7.1979541774        0.1112913854        0.1284696288
 O         -7.7870469290       -1.0127403648       -0.4800737170
 C         -4.9969926300       -0.6016882660       -0.8669742368
 C         -3.6176961739       -0.6141679536       -0.8832695075
 C         -0.7119830675       -1.1461338419        0.0670249144
 C         -1.3705237116       -2.3713527673        0.2008110053
 C         -0.6814100493       -3.5810965188        0.1284926887
 C          0.6792228946       -3.5817865853       -0.0845084372
 C          1.3695776746       -2.3728241501       -0.1594215915
 C          0.7122856595       -1.1466374444       -0.0287366353
 C          3.5701324466        0.8039174376       -1.0510266339
 C          4.9481627783        0.7971680643       -1.0997687219
 H          7.4611768619       -1.8074656467       -0.0203264532
 H          7.5713539705        0.9736999518        0.3680911019
 H          7.5336757680        0.2174188231       -1.2376063016
 H          5.5821935776       -1.1296161355        1.5925415152
 H          3.1232634112       -1.1404569777        1.6755328403
 H          2.4496788111        2.5710615977        0.2533247730
 H          1.2311025440        4.6944836110        0.1601753920
 H         -1.2293817265        4.6947759311       -0.1373308866
 H         -2.4492560693        2.5720838273       -0.2240082610
 H         -3.0378971268        1.3301223524        1.8173055176
 H         -5.4926900567        1.3361887959        1.8500300627
 H         -7.5620743706        0.9715071855       -0.4448301844
 H         -7.5551813993        0.2228985789        1.1640121445
 H         -7.4578923816       -1.8069624216       -0.0443609240
 H         -5.5531754708       -1.1317214854       -1.6268596372
 H         -3.0929810056       -1.1440433165       -1.6649342135
 H         -2.4365107275       -2.3852355450        0.3682167545
 H         -1.2236453538       -4.5097780505        0.2258683460
 H          1.2206373358       -4.5110471143       -0.1810138927
 H          2.4353850017       -2.3884979300       -0.3279186276
 H          3.0066819660        1.3321353149       -1.8065043192
 H          5.4604802990        1.3374789441       -1.8835558864
