56
 energy: -74.260114188338 gnorm: 0.000113695354 xtb: 6.7.1 (edcfbbe)
C           -8.71016846132873        3.83816420138636       -0.77183436661695
C           -8.05001949559670        2.69599200197486       -0.00761067518083
C           -7.88762042892167        1.44798318731297       -0.87326022667078
C           -7.20367388166064        0.30944314269492       -0.11956621273874
C           -7.06283932709392       -0.94381345251597       -0.97974093097383
C           -6.34625912445131       -2.08242500120082       -0.23945912083856
C           -4.91861070945728       -1.73282963487706        0.06499211938701
C           -4.51944972519331       -1.35765851824787        1.34226703138986
C           -3.20956118417571       -1.00741674079077        1.60074569076350
C           -2.24072711506698       -1.02112939563254        0.59234352897871
C           -0.88094725981369       -0.64189931250420        0.92446468486014
C            0.18005492626947       -0.67031987561968        0.10283498461175
C            1.53924134237729       -0.28981608028017        0.43036347125600
C            1.89829807154273        0.27427718979933        1.68830408450318
C            3.18052780905059        0.62372261138530        1.96405499709036
C            4.21851528762960        0.44222016250703        1.01185884825275
C            5.53856295594478        0.79166202444073        1.27080685845282
C            6.54189944714227        0.60525564720070        0.32104409576771
C            7.89279953541228        0.95579191279445        0.57149528076466
C            8.85338756121393        0.76100321364827       -0.37397033189856
C            8.51989853672881        0.20390742931117       -1.62724436467025
C            7.23384351874202       -0.14460114553446       -1.90684922638260
C            6.20321137378337        0.04064725357199       -0.94934202858762
C            4.88011299151817       -0.30783945410846       -1.20809454568655
C            3.87708373073578       -0.12176951861870       -0.25814278980197
C            2.53041412698721       -0.46969351308034       -0.50766299535401
C           -2.64868783060314       -1.40142601283483       -0.68997597915026
C           -3.95901003522606       -1.74875494477972       -0.94307372354204
H           -8.82000885761193        4.71292295444870       -0.13431744815823
H           -8.10932383244582        4.11630329480274       -1.63553239478351
H           -9.69699667279635        3.54268643718173       -1.12294415258952
H           -8.65419815165245        2.45016592084852        0.86929465773581
H           -7.06766731477076        3.01732365238010        0.34775864240056
H           -8.87160841920501        1.11708235819469       -1.21580649642837
H           -7.29723729474716        1.69894608429356       -1.75824320495480
H           -7.78395466179702        0.07006322016807        0.77531144555746
H           -6.21293483104043        0.63658142547025        0.20498859847175
H           -8.05516779756310       -1.28763452071669       -1.28181096083554
H           -6.50465871287075       -0.69765489651327       -1.88586330046828
H           -6.88128361749176       -2.29903565659090        0.68742722896034
H           -6.37353964123020       -2.97762948554335       -0.86614632939092
H           -5.24492824186655       -1.33893526038712        2.14379190319760
H           -2.92417943998154       -0.71850832609367        2.60330599102347
H           -0.75171359399748       -0.31850759543991        1.94923346425757
H            0.05218208749332       -1.01531768938526       -0.91495190410946
H            1.13295767019128        0.43142780824460        2.43245327397497
H            3.43652254639695        1.05317948331037        2.92289024885624
H            5.79423980033306        1.21834806816570        2.23141528984210
H            8.14290313272918        1.38189145645473        1.53313418724952
H            9.88086846657614        1.03010469877459       -0.17488608382776
H            9.29889395406474        0.05914743423805       -2.36206520131579
H            6.97318231806955       -0.57075409868245       -2.86564947833420
H            4.62485696250470       -0.73392273687338       -2.16901816459804
H            2.28684282857220       -0.89432283224328       -1.47256191510561
H           -1.93521173239360       -1.42294246517167       -1.49965220859558
H           -4.24759957857874       -2.04187708723414       -1.94318114917927
