  56
        -74.16097479
 C         -8.5934960832        3.9906419903        0.1529109665
 C         -7.9519983911        2.6883533386        0.6152058372
 C         -7.8054999429        1.6888052961       -0.5292218889
 C         -7.1525691261        0.3869982563       -0.0732118637
 C         -7.0274815135       -0.6182998883       -1.2142328750
 C         -6.3575264009       -1.9246223102       -0.7640646455
 C         -4.9340899883       -1.6929175675       -0.3573637432
 C         -4.5626149205       -1.6190390589        0.9833684470
 C         -3.2594551334       -1.3665405244        1.3434716667
 C         -2.2537694826       -1.1730790177        0.3765517041
 C         -0.9188817438       -0.9154879591        0.8069475310
 C          0.1698099913       -0.7088441051       -0.0024709345
 C          1.4976197302       -0.4606903089        0.4102445736
 C          1.9125915311       -0.3927834615        1.7549371131
 C          3.2170357219       -0.1547789105        2.0895945224
 C          4.2208676757        0.0362516478        1.1034814525
 C          5.5433856286        0.2743979958        1.4265421389
 C          6.5406007348        0.4628497541        0.4315822214
 C          7.8742762683        0.7008758805        0.7553007618
 C          8.8303405664        0.8812490665       -0.2387983548
 C          8.4632969261        0.8259934496       -1.5746533202
 C          7.1459073327        0.5914168380       -1.9267455783
 C          6.1574968061        0.4048535334       -0.9432593461
 C          4.8167586549        0.1644514694       -1.2697619544
 C          3.8259507359       -0.0250930179       -0.2754759704
 C          2.5011036836       -0.2667337768       -0.5908785708
 C         -2.6415146701       -1.2526879158       -0.9747292061
 C         -3.9466508058       -1.5054128208       -1.3241237674
 H         -8.7036972543        4.6808992713        0.9859771794
 H         -7.9806429435        4.4671470658       -0.6092698051
 H         -9.5780540006        3.8014925656       -0.2695886969
 H         -8.5611274857        2.2440495223        1.4048723295
 H         -6.9668825403        2.8982410963        1.0364966215
 H         -8.7918063144        1.4732248900       -0.9466943432
 H         -7.2018596602        2.1360838624       -1.3220796824
 H         -7.7478461469       -0.0521040240        0.7309237236
 H         -6.1598222602        0.6020399063        0.3269669671
 H         -8.0210306804       -0.8455410485       -1.6075741253
 H         -6.4408463075       -0.1750304679       -2.0215719664
 H         -6.9203543768       -2.3460116211        0.0710007328
 H         -6.3882899437       -2.6368945422       -1.5922977707
 H         -5.3118065035       -1.7636520698        1.7491377580
 H         -2.9940356151       -1.3137869452        2.3901480895
 H         -0.7810879263       -0.8879723766        1.8793538549
 H          0.0217721167       -0.7358186903       -1.0738969595
 H          1.1868764495       -0.5327072989        2.5414804893
 H          3.5091027050       -0.1085816450        3.1292717080
 H          5.8387638027        0.3197901625        2.4656189705
 H          8.1642796105        0.7446350622        1.7954768729
 H          9.8590627512        1.0643324946        0.0331801567
 H          9.2078849380        0.9663503611       -2.3444390868
 H          6.8603113555        0.5484035740       -2.9678735751
 H          4.5258765727        0.1204398172       -2.3095563654
 H          2.2070288255       -0.3126881949       -1.6301748861
 H         -1.9073338514       -1.1156344755       -1.7531546309
 H         -4.2167955992       -1.5644392373       -2.3694618255
