76
 energy: -127.353279594741 gnorm: 0.000090574573 xtb: 6.7.1 (edcfbbe)
C            8.77900543056633       -0.46024146841750        3.03898631016234
C            7.58685262274264        0.23471062189339        3.10512816770406
C            6.67769839568646        0.17016956842112        2.06181817798534
C            6.95017041039387       -0.58703535341754        0.92768830734851
C            8.15152322496731       -1.31101760007669        0.88266181658909
C            9.05582390109828       -1.24011639915273        1.92645779155744
O            8.48022604370520       -2.12257049196517       -0.17272706031701
C            7.59154476604853       -2.20049147491829       -1.21392266977231
C            7.93442682621192       -3.01669710457663       -2.27609839010445
C            7.09397577032749       -3.12402756732528       -3.37390534440106
C            5.91891531254276       -2.39833153715308       -3.40776275919405
C            5.56881778990660       -1.57942313910835       -2.34647530162033
C            6.38683352820791       -1.48128235938716       -1.22611840472364
N            6.06275732399415       -0.67310139212246       -0.14104507596968
C            4.83599832474978        0.03597128192284       -0.12095921257241
C            3.62479669631028       -0.68333184899642       -0.06031127973494
C            2.43491244677977       -0.01318446406938       -0.03526678348347
C            2.39610979634824        1.39403917085209       -0.05671421596320
C            3.61522017350059        2.12258416993662       -0.11181897986228
C            3.57836141786319        3.53264468236885       -0.12625178017014
C            2.38968023288529        4.20654941400832       -0.07949199355201
C            1.16149760633302        3.52192338968260       -0.01955838320837
N           -0.00046303643522        4.17147397876317        0.03537196688041
C           -1.16232937388580        3.52089991342538        0.07899626709210
C           -2.39060051707828        4.20419517590296        0.15109334839017
C           -3.57917441789621        3.52940255090579        0.18635846092123
C           -3.61583673839226        2.11980211329651        0.14733717357657
C           -4.82731833383325        1.40443971249327        0.17582840128058
C           -4.83629432234573        0.03315131051557        0.12075158186705
N           -6.06291393266208       -0.67639980730259        0.12943319898285
C           -6.95116086203318       -0.57203668822042       -0.93695705496532
C           -6.67961354333342        0.20456544636074       -2.05812263576030
C           -7.58957884813487        0.28696326008595       -3.09946054624629
C           -8.78165075527993       -0.40909958820810       -3.04433890684110
C           -9.05756686190061       -1.20798820193506       -1.94516002363933
C           -8.15245151181851       -1.29676702382571       -0.90343709675897
O           -8.48027925064657       -2.12634150263717        0.13810980547740
C           -7.59077896458253       -2.22210618453984        1.17710043407414
C           -7.93276787650397       -3.05648054639356        2.22536238911593
C           -7.09144421718331       -3.18262496267812        3.32049174659890
C           -5.91639063385020       -2.45753862156837        3.36589350553931
C           -5.56718300796740       -1.62047645783961        2.31857395781350
C           -6.38608752354050       -1.50312848507297        1.20070969047157
C           -3.62501367582576       -0.68478705469508        0.04692223548881
C           -2.43523976839708       -0.01412153864266        0.03304804233851
C           -2.39663720644847        1.39251630324444        0.07911750647233
C           -1.16026585012636        2.08883441173669        0.05284395509372
N           -0.00027316803900        1.43919246962224        0.01143658589541
C            1.15963255647475        2.08961825724435       -0.01849882532182
C            4.82682511004789        1.40800604686176       -0.15222465087295
H            9.49085354028356       -0.40827980773962        3.84746488796911
H            7.35217653980459        0.83298074194444        3.97194730360626
H            5.74476820832846        0.70710589786866        2.12902689401757
H            9.96955282464477       -1.80746062890714        1.85014531548412
H            8.86615171713986       -3.55701315421319       -2.22576554546288
H            7.36738004280314       -3.76520146703303       -4.19685749887843
H            5.26437236049124       -2.46086194398799       -4.26334665587321
H            4.65571281592938       -1.00689035754863       -2.38792861047832
H            3.65739582251723       -1.76220719397816       -0.02906178135882
H            1.49769064956481       -0.54578501413999        0.01331222412801
H            4.51008741437574        4.07667970571459       -0.17133361941823
H            2.35764649310070        5.28499682010469       -0.08509371743693
H           -2.35871876471814        5.28238446179529        0.17554624160865
H           -4.51096438617630        4.07243111101561        0.24119362217962
H           -5.75902641302369        1.94891423203378        0.23714184238516
H           -5.74676022637230        0.74263733766396       -2.11680119916957
H           -7.35561687313030        0.90005431861241       -3.95605640283798
H           -9.49413611083443       -0.34329020007942       -3.85124594260281
H           -9.97121599159950       -1.77660427777524       -1.87788953274057
H           -8.86450623998433       -3.59590927401472        2.16648361688795
H           -7.36415520691197       -3.83787942552711        4.13250968178221
H           -5.26115848832251       -2.53473653113691        4.21974968303955
H           -4.65407452371335       -1.04868413643965        2.36915306766996
H           -3.65747146294956       -1.76295758267886       -0.00314669045864
H           -1.49795920685910       -0.54564428369023       -0.02524187976854
H            5.75847584543637        1.95360672906234       -0.20359115960033
