76
 energy: -127.394721787231 gnorm: 0.000028798738 xtb: 6.7.1 (edcfbbe)
C            8.73368918820353       -3.31243353965542       -0.31418422862937
C            7.52601446531314       -3.35117727405767        0.35207311376265
C            6.63669642769563       -2.29161463567518        0.25479193363966
C            6.94595811877627       -1.16974483725085       -0.50383509148080
C            8.16035213431497       -1.15535906546994       -1.20338632221712
C            9.04454270505579       -2.21287389651003       -1.10063795519302
O            8.52500433177974       -0.11933986463517       -2.02694012943230
C            7.65520081829287        0.93668168506721       -2.13937821848276
C            8.03967425292287        1.98037719684368       -2.96001361883277
C            7.22853524366833        3.09706699342007       -3.09962012349320
C            6.04240880902721        3.16750654503922       -2.39814230792773
C            5.65127169300313        2.12251141276111       -1.57467058185748
C            6.43637562207061        0.98330810055810       -1.44954804546308
N            6.07289435652961       -0.08610701542086       -0.62755008291461
C            4.84091714384728       -0.07075663544302        0.05876995686503
C            3.64031516618435       -0.05307510037200       -0.66748354200055
C            2.43778068805883       -0.03921168865217       -0.00853639029922
C            2.38959096663783       -0.04640881671463        1.39152698632511
C            3.59315550762442       -0.06880519169071        2.12940028211711
C            3.55021027604669       -0.07416533943229        3.55832697771888
C            2.37794915503308       -0.05867604758626        4.23106609903434
C            1.13905469494463       -0.03662259649118        3.52503257506419
N            0.00019058153212       -0.01934379084360        4.21162297104342
C           -1.13892811266193        0.00142043039582        3.52554705143642
C           -2.37751932725839        0.02160791462740        4.23216686701889
C           -3.55000237004899        0.04271656706960        3.55996813738123
C           -3.59348676676579        0.04476523129579        2.13104800755756
C           -4.81166976228462        0.06054953448122        1.44147171329268
C           -4.84200510030249        0.06257277180097        0.06091636944139
N           -6.07434979995329        0.08878657352596       -0.62444816308338
C           -6.93966072677764        1.17805347774167       -0.49538162447510
C           -6.62294901543658        2.29342932830335        0.26972401657555
C           -7.50456727962807        3.35892912598118        0.37206418947729
C           -8.71183249449810        3.33274596757714       -0.29553576407953
C           -9.03004125343707        2.23977449902675       -1.08819663142129
C           -8.15359402534144        1.17631431584607       -1.19586591703697
O           -8.52529186411180        0.14734008441097       -2.02507216129921
C           -7.66198804528687       -0.91323832551264       -2.14452803002632
C           -8.05248034706436       -1.94868861056017       -2.97271894317858
C           -7.24815753603538       -3.06933270711624       -3.11986493756625
C           -6.06277779104729       -3.15200985888188       -2.41846427785870
C           -5.66561173133617       -2.11532439265725       -1.58740394722118
C           -6.44382948000605       -0.97229700502201       -1.45446041516631
C           -3.64178185089973        0.04360679715867       -0.66591058540960
C           -2.43906092107132        0.02220180546752       -0.00748201225289
C           -2.39028048708200        0.02275677216523        1.39258083410059
C           -1.13969253800046        0.00311068587079        2.09864792733913
N           -0.00035073295351       -0.01304948921868        1.41367711207626
C            1.13925631385799       -0.03189396187867        2.09814457656236
C            4.81113414732759       -0.07667360322682        1.43932483030210
H            9.43103447396433       -4.13163837095222       -0.23815433252556
H            7.26021975715648       -4.20776941150588        0.95228435676473
H            5.68884596273150       -2.34360762446273        0.76725898317035
H            9.97056960547946       -2.15861991623141       -1.65036193285073
H            8.98207047150817        1.90177970736862       -3.47804952883479
H            7.53535991407674        3.90511289055302       -3.74469023456448
H            5.40973633446248        4.03789070912146       -2.48029924550285
H            4.72972708088054        2.19846017498300       -1.01899522321185
H            3.67976885303607       -0.05793190554908       -1.74669849123381
H            1.50529319474579       -0.03061547845769       -0.55005266276523
H            4.49035197652731       -0.09104638695545        4.09101104009698
H            2.33384017524157       -0.06194080199327        5.30906818882567
H           -2.33298231439093        0.01951345419050        5.31015549456878
H           -4.48991307873707        0.05889469317418        4.09308383413582
H           -5.73780237697749        0.06800834843451        1.99832759622311
H           -5.67526735325518        2.33571678775340        0.78338314491733
H           -7.23306039098357        4.21018432009348        0.97729003736360
H           -9.40315569954573        4.15667859412603       -0.21572091980408
H           -9.95593009906849        2.19531307668830       -1.63902925651406
H           -8.99412290320926       -1.86060788865258       -3.49060217040753
H           -7.55968954721325       -3.87090423481306       -3.77073291942652
H           -5.43544450761711       -4.02567229127646       -2.50656047190004
H           -4.74480977607025       -2.20079866431495       -1.03186759461244
H           -3.68156658107804        0.05405393724820       -1.74507631023550
H           -1.50682326955787        0.01312613422329       -0.54942398360100
H            5.73748664946469       -0.08349137926608        1.99582212207180
