  76
       -127.34781698
 C          7.2468710642       -2.7667515897        3.5531683145
 C          6.0647153280       -2.0509124921        3.5603035328
 C          5.6620942173       -1.3497003331        2.4357232612
 C          6.4352196023       -1.3611285483        1.2794859787
 C          7.6440667216       -2.0744060795        1.2888245231
 C          8.0395029251       -2.7721557537        2.4153613908
 O          8.4825296505       -2.1060527776        0.2047796816
 C          8.0976228799       -1.4168336494       -0.9161370266
 C          8.9457474928       -1.4625885802       -2.0075287734
 C          8.6092657065       -0.8048316152       -3.1808453138
 C          7.4162471645       -0.1114599055       -3.2580512343
 C          6.5626399081       -0.0598112829       -2.1685743660
 C          6.8931846122       -0.6983673037       -0.9779753433
 N          6.0608013447       -0.6692767132        0.1343923731
 C          4.8320617491        0.0403137242        0.0989980672
 C          3.6207183373       -0.6810726813        0.0991883933
 C          2.4311378920       -0.0102095251        0.0594654752
 C          2.3939131026        1.3956837310        0.0134610733
 C          3.6146750036        2.1260379498        0.0136446646
 C          3.5780725262        3.5348476522       -0.0291036816
 C          2.3883754402        4.2084893650       -0.0743669209
 C          1.1582086508        3.5232791758       -0.0833268782
 N         -0.0021995487        4.1732373371       -0.1340738491
 C         -1.1623377179        3.5208168981       -0.1376970194
 C         -2.3926704214        4.2026996337       -0.2026087667
 C         -3.5818829175        3.5267038421       -0.2057046272
 C         -3.6179443788        2.1184962573       -0.1449899973
 C         -4.8290496596        1.4014654904       -0.1532105444
 C         -4.8348424397        0.0310674951       -0.0889109040
 N         -6.0613311214       -0.6818197760       -0.0898174234
 C         -6.3985024106       -1.4878790190       -1.1706698088
 C         -5.5968136603       -1.5787867772       -2.3037936627
 C         -5.9598048380       -2.3962356069       -3.3613488335
 C         -7.1307263684       -3.1285121355       -3.3106900325
 C         -7.9538961711       -3.0303244212       -2.1992035861
 C         -7.5985237829       -2.2151385047       -1.1401404816
 O         -8.4682450898       -2.1463975476       -0.0828986768
 C         -8.1261971841       -1.3363150469        0.9689979450
 C         -9.0112323382       -1.2738285258        2.0298500127
 C         -8.7189478860       -0.4929974371        3.1375602899
 C         -7.5314608600        0.2126207167        3.1819562241
 C         -6.6413839841        0.1564979190        2.1223148942
 C         -6.9289278289       -0.6037719710        0.9936359630
 C         -3.6229996260       -0.6866752093       -0.0191366944
 C         -2.4339685476       -0.0139957818       -0.0186658071
 C         -2.3970712689        1.3913786949       -0.0796825021
 C         -1.1601601256        2.0886303340       -0.0773871417
 N         -0.0016915999        1.4385975280       -0.0303373811
 C          1.1564955849        2.0906232626       -0.0352512925
 C          4.8263514566        1.4114723585        0.0608390517
 H          7.5616125912       -3.3147689594        4.4270685378
 H          5.4464823886       -2.0296082394        4.4443960237
 H          4.7439646254       -0.7839773287        2.4524630998
 H          8.9732682013       -3.3102734138        2.3826538933
 H          9.8632418556       -2.0220326763       -1.9191969954
 H          9.2768643356       -0.8441489752       -4.0269050079
 H          7.1384441843        0.3942607177       -4.1698441171
 H          5.6284741087        0.4744780612       -2.2400922488
 H          3.6533242031       -1.7600262287        0.1259633448
 H          1.4920821126       -0.5417256510        0.0543471318
 H          4.5107302890        4.0794050129       -0.0262315373
 H          2.3565747880        5.2864424540       -0.1075076328
 H         -2.3613356804        5.2802073000       -0.2483606206
 H         -4.5146233922        4.0689642836       -0.2545356846
 H         -5.7623109686        1.9438354030       -0.2108388723
 H         -4.6871873779       -1.0017346069       -2.3564312092
 H         -5.3192123358       -2.4528657805       -4.2277867985
 H         -7.4136413405       -3.7684342515       -4.1313711221
 H         -8.8809150183       -3.5772332598       -2.1353113530
 H         -9.9219493043       -1.8480051557        1.9702849550
 H         -9.4152545882       -0.4481719038        3.9598712702
 H         -7.2867563152        0.8129733872        4.0444862535
 H         -5.7124716394        0.7024201080        2.1697458685
 H         -3.6549225369       -1.7645738211        0.0363523080
 H         -1.4950774272       -0.5430365494        0.0355483829
 H          5.7601498194        1.9560003180        0.0658220210
