76
 energy: -127.394724737054 gnorm: 0.000037195191 xtb: 6.7.1 (edcfbbe)
C            8.86439090017804       -0.29873591658446        2.97693727632950
C            7.65586168413662        0.36252673432358        3.05490974391929
C            6.72395031676649        0.24381942460351        2.03491210414820
C            6.99028493546124       -0.53131860964434        0.91323609413057
C            8.20614921341585       -1.22646336841268        0.86066013698805
C            9.13295872387032       -1.10235126411840        1.87872300257507
O            8.53134619873343       -2.06661290846445       -0.17504059982478
C            7.61905457539195       -2.20099754797526       -1.19184010247623
C            7.96351211777098       -3.03964699758782       -2.23522160442774
C            7.10811444298113       -3.20191319794860       -3.31514954972496
C            5.91804537052959       -2.50443939546149       -3.35008600864999
C            5.56704641487970       -1.66295948904785       -2.30519716720612
C            6.39690466475782       -1.51550653284289       -1.20087836917626
N            6.07414490124969       -0.67583310544745       -0.13193112472759
C            4.84149195817806        0.00856115521609       -0.10880815617611
C            3.64164185988331       -0.71851419394086       -0.07518810516079
C            2.43881030454913       -0.06046742328531       -0.04830745250512
C            2.38938495690755        1.33958400870537       -0.04715406024728
C            3.59229009530887        2.07833149175855       -0.07603235234203
C            3.54864802682070        3.50723634515595       -0.07283576650098
C            2.37641398245257        4.17915526011973       -0.03642121062419
C            1.13828055694820        3.47223166256606       -0.00333555127767
N           -0.00038091703959        4.15816523847296        0.03677022266468
C           -1.13902633128752        3.47150104039360        0.06264721899209
C           -2.37717481964823        4.17751216332720        0.11081012798560
C           -3.54937235111562        3.50491837532576        0.13382520750461
C           -3.59294616849624        2.07624496999809        0.10798827138601
C           -4.81075455306781        1.38640802871243        0.13321402590443
C           -4.84188744813565        0.00609417812562        0.10319310527923
N           -6.07420168983060       -0.67914091208121        0.11829855954583
C           -6.99480613612731       -0.51590220411788       -0.92010892182170
C           -6.73287272992313        0.27871670737967       -2.02911139791895
C           -7.66916584290356        0.41577049950118       -3.04278351899648
C           -8.87774950209602       -0.24612999283096       -2.97111645853081
C           -9.14200757275183       -1.06880560081097       -1.88604596119646
C           -8.21079278175910       -1.21131785037064       -0.87444038373114
O           -8.53186431376013       -2.06945668541442        0.14771280335405
C           -7.61498019403656       -2.22248902742271        1.15772504478784
C           -7.95501880340497       -3.07972798478411        2.18736368825026
C           -7.09488147904651       -3.26160880863809        3.26038255853484
C           -5.90451249472638       -2.56506469086113        3.30259312640730
C           -5.55791604951492       -1.70502255546917        2.27144049982324
C           -6.39255337795705       -1.53761766458286        1.17358175814243
C           -3.64202056415968       -0.71999950206400        0.05243479326287
C           -2.43930618795142       -0.06143844725126        0.03599988795454
C           -2.39001075067208        1.33836216487057        0.06291132724935
C           -1.13963341851777        2.04472928751321        0.04281678785089
N           -0.00032814796173        1.36032093157280        0.00753456255379
C            1.13895170984223        2.04534591555432       -0.01330834602273
C            4.81018614856792        1.38921408006843       -0.11274655050584
H            9.59487146383849       -0.20573910509360        3.76491731325957
H            7.42264460903507        0.97573657827877        3.91178159947040
H            5.77646252760873        0.75270174084045        2.11850695396545
H           10.05846687945191       -1.64925890931463        1.79511520548792
H            8.91015888539412       -3.55350741004171       -2.18559652422512
H            7.38379882480604       -3.86110259387061       -4.12302070116656
H            5.25088036353475       -2.60388218984866       -4.19245751237158
H            4.64172112284637       -1.11060330004338       -2.35430821008642
H            3.68198675056445       -1.79763322060057       -0.06249379392678
H            1.50727001705315       -0.60280097556968       -0.01707517674194
H            4.48828001949194        4.04049897466928       -0.09803955972958
H            2.33170130733489        5.25712209529222       -0.03083343108381
H           -2.33251575727200        5.25536603253230        0.12751871251476
H           -4.48900384160720        4.03751407563381        0.17041623118143
H           -5.73593261366148        1.94298857508158        0.17939994324884
H           -5.78543331928923        0.78849486444318       -2.10776848059623
H           -7.43935507078818        1.04369953577629       -3.88986086065968
H           -9.61162246388341       -0.13889069397954       -3.75412063963717
H          -10.06748507876435       -1.61658933450016       -1.80800363087882
H           -8.90203908487656       -3.59238591009417        2.13271837921754
H           -7.36715029973806       -3.93521416458702        4.05744725917943
H           -5.23362507009603       -2.67968848969025        4.14006635050320
H           -4.63224396533740       -1.15381850687551        2.32648176140003
H           -3.68235554961569       -1.79866988823449        0.01882319149392
H           -1.50778192115048       -0.60293656615639       -0.00769236723034
H            5.73541354375762        1.94662145400811       -0.14625424720740
