76
 energy: -127.353340560831 gnorm: 0.000046689631 xtb: 6.7.1 (edcfbbe)
C            7.23933061638093       -2.78436238823734        3.55116857543642
C            6.06105220882535       -2.06309989185248        3.56068759271785
C            5.66257144430444       -1.35520784717803        2.43834775532885
C            6.43569472367467       -1.36559100014440        1.28259547827136
C            7.64195625847729       -2.08232859660255        1.29048863859713
C            8.03312667342752       -2.78706949606892        2.41390134124802
O            8.48354223515383       -2.11057552373101        0.20813635249353
C            8.10525478882691       -1.40993791283660       -0.90858619538368
C            8.95898823435430       -1.44809999602515       -1.99564376210071
C            8.62999812988481       -0.78083525700852       -3.16593096920674
C            7.43805303398161       -0.08671580891792       -3.24426046284323
C            6.57885234059979       -0.04265129468782       -2.15838226039903
C            6.90279736380449       -0.68903587504788       -0.97065615029145
N            6.06462861709363       -0.66699498689344        0.13911483616758
C            4.83636264857629        0.04093038095084        0.10266872501798
C            3.62526027265752       -0.68029051015487        0.11161448388578
C            2.43479052730342       -0.01184017992822        0.06822104817178
C            2.39618709438641        1.39427384752400        0.00952437001912
C            3.61568586321844        2.12436782612774        0.00157614071565
C            3.57826865321546        3.53339112892190       -0.05318601804744
C            2.38830987985329        4.20489480106468       -0.10089692008166
C            1.15957226412542        3.51851405742288       -0.10114065041403
N           -0.00375135693118        4.16601328976376       -0.15304073523304
C           -1.16564584281279        3.51386057546982       -0.15073435234983
C           -2.39574076575153        4.19481238296440       -0.21451284976969
C           -3.58407421932385        3.51877674029178       -0.21194912218094
C           -3.61842103782060        2.11006196422022       -0.14757858037310
C           -4.82917649725652        1.39281286211712       -0.15230232568970
C           -4.83460400529160        0.02226375765678       -0.08673891405409
N           -6.06056821086019       -0.68999586446790       -0.08425482349995
C           -6.40631688413657       -1.48905148005721       -1.16875207041912
C           -5.60678529715555       -1.58318367434942       -2.30260568919546
C           -5.97989799801548       -2.39052037847756       -3.36491788060054
C           -7.15911727001040       -3.10870031031405       -3.31757313085534
C           -7.97953969713500       -3.00771900030321       -2.20398951405764
C           -7.61361221863010       -2.20348889261997       -1.14043635271155
O           -8.48133806032721       -2.13263420512576       -0.08099822807161
C           -8.13010526468121       -1.33059786587989        0.97460167570875
C           -9.01230923233869       -1.26624722672688        2.03744083118179
C           -8.71181083310992       -0.49330330631644        3.14883275042120
C           -7.51944265661554        0.20304304427449        3.19396710897422
C           -6.63195285270981        0.14483780268331        2.13176599078509
C           -6.92730562200951       -0.60805733604414        1.00064251988825
C           -3.62210292464071       -0.69362788244485       -0.01867547445397
C           -2.43328040344972       -0.02090417628973       -0.02042721974978
C           -2.39754966152336        1.38511233570894       -0.08333350836347
C           -1.16174173401330        2.08324293960971       -0.08454830183594
N           -0.00081604917255        1.43567591685004       -0.03462516909898
C            1.15872937225867        2.08753185826912       -0.04331640472454
C            4.82830705149283        1.41204344777363        0.05320489798735
H            7.55087673500201       -3.33828858521774        4.42250419681590
H            5.44205361467785       -2.04242566401030        4.44430125696055
H            4.74704795489755       -0.78521893520849        2.45780102657204
H            8.96471375727888       -3.32886450440679        2.37944101545768
H            9.87514629768859       -2.00966441651679       -1.90675899004322
H            9.30229540458410       -0.81438727611818       -4.00853291316539
H            7.16461082459742        0.42563177533722       -4.15371006579014
H            5.64544679095711        0.49278806529628       -2.23203261240513
H            3.65845793174033       -1.75896662649909        0.14807897473500
H            1.49686806804812       -0.54537962024934        0.07027124491068
H            4.51046549424815        4.07845790281823       -0.05717132152078
H            2.35549662911429        5.28252314012250       -0.14269746155612
H           -2.36526654586056        5.27215535735512       -0.26461986862755
H           -4.51732694850986        4.05989800669368       -0.26029112536769
H           -5.76272237906417        1.93478711432360       -0.20741629645212
H           -4.69037639628520       -1.01661845989502       -2.35317122280593
H           -5.34023347361799       -2.44981759809084       -4.23191080777348
H           -7.45090588106019       -3.73994663465441       -4.14189030571778
H           -8.91291464904254       -3.54400215408038       -2.14243955791437
H           -9.92783911596608       -1.83258465301471        1.97683692117443
H           -9.40629061108217       -0.44713706832083        3.97263604416314
H           -7.26782633931944        0.79711732073518        4.05891592630539
H           -5.69852811064220        0.68306810994534        2.18049411453856
H           -3.65293403340638       -1.77151172808224        0.03782049745288
H           -1.49453392426566       -0.55030896496514        0.03304229455601
H            5.76114731151649        1.95799658761053        0.05041125203769
