  110
       -178.27288194
 N          1.6883863594        9.8472019318        1.7413768114
 C          1.1644017709        8.8432135676        1.5656114245
 C          0.4798092818        7.6211740423        1.3512505051
 N          1.1846203112        6.5272208316        1.1171606721
 C          0.5308814709        5.3850325676        0.9126030526
 C          1.2809794849        4.1847858702        0.6678814529
 C          2.6815477349        4.2104506290        0.6999403704
 C          3.4135811281        3.0675097790        0.5040281109
 C          2.7525038969        1.8589397731        0.2452631206
 N          3.4675702235        0.6792301090        0.0632511618
 C          3.1553069510       -0.5469434062        0.6283232872
 C          2.1636564915       -0.8848817855        1.5381245301
 C          2.1012648026       -2.1924312397        1.9759182268
 C          3.0004927568       -3.1709313158        1.5351059995
 C          2.8919458722       -4.5528945256        2.0266589385
 C          2.6031178299       -4.8140635088        3.3643233486
 C          2.5257490282       -6.1139581917        3.8279135700
 C          2.7306145238       -7.1757427305        2.9622659190
 C          3.0090931015       -6.9285139344        1.6278125263
 C          3.0898184507       -5.6287783707        1.1638434876
 C          4.0115096063       -2.8193226665        0.6487923235
 C          4.0971434080       -1.5102281144        0.2035823863
 C          5.0189222473       -0.8277242129       -0.6646068055
 C          6.1247630084       -1.2472870554       -1.3861992669
 C          6.8098884716       -0.3290022016       -2.1720778854
 C          7.9968805274       -0.7396255461       -2.9370787290
 C          8.0268014182       -1.9630373135       -3.6025623618
 C          9.1431516208       -2.3463527172       -4.3221192353
 C         10.2500431900       -1.5165896777       -4.3856243048
 C         10.2327518200       -0.2993237244       -3.7255968424
 C          9.1156115721        0.0874111670       -3.0091474219
 C          6.3543724384        0.9938580840       -2.2431449194
 C          5.2515601019        1.4305362168       -1.5371927580
 C          4.5969415513        0.5187445987       -0.7223825950
 C          1.3668044822        1.8311608979        0.1867071470
 C          0.6017069502        2.9745646959        0.4121577743
 C         -0.8516422506        2.9405581822        0.4245147552
 C         -1.5648570754        1.7669585295        0.1900291759
 C         -2.9481783369        1.7202746989        0.2908815885
 N         -3.5967069670        0.5032587293        0.1124056003
 C         -4.7354614006        0.2716856683       -0.6416821230
 C         -5.5015304615        1.1497979389       -1.3937577012
 C         -6.5852807919        0.6407107184       -2.0809284554
 C         -6.9136193886       -0.7206514318       -2.0532017121
 C         -8.0826250121       -1.2116503548       -2.7983094641
 C         -9.2776383964       -0.4957839448       -2.7981583560
 C        -10.3768286728       -0.9599376518       -3.4962724460
 C        -10.2997368989       -2.1442085263       -4.2098898880
 C         -9.1162877959       -2.8633404418       -4.2186413879
 C         -8.0175751253       -2.4030398277       -3.5173405328
 C         -6.1186437685       -1.6013878108       -1.3302661065
 C         -5.0304421717       -1.1098143872       -0.6279916855
 C         -4.0191964331       -1.7398684953        0.1783359495
 C         -3.7888892976       -3.0543647166        0.5526161885
 C         -2.7015879847       -3.3465612756        1.3663963408
 C         -2.4046435400       -4.7321856502        1.7584886101
 C         -1.0920302687       -5.1993085602        1.7661453882
 C         -0.8118353076       -6.5024269928        2.1322313148
 C         -1.8363222620       -7.3565773808        2.5043853413
 C         -3.1446386060       -6.9022850288        2.5024074795
 C         -3.4276173544       -5.6018146890        2.1290328533
 C         -1.8869808525       -2.3060549061        1.8290744617
 C         -2.1040133050       -0.9904758249        1.4754168097
 C         -3.1558571419       -0.7114458894        0.6143113458
 C         -3.6620093185        2.8879917666        0.5924539670
 C         -2.9832390120        4.0646172905        0.7827921807
 C         -1.5845411534        4.1118997488        0.7123977467
 C         -0.8898392883        5.3474880807        0.9420390129
 N         -1.5936550553        6.4522503432        1.1837918631
 C         -0.9383428282        7.5819872491        1.3891701231
 C         -1.6761729851        8.7636968112        1.6485312387
 N         -2.2434176121        9.7355219162        1.8644277966
 H          3.1669077941        5.1515053569        0.9062910394
 H          4.4897123399        3.0843695700        0.5764427195
 H          1.4682161857       -0.1508031291        1.9156108665
 H          1.3281224636       -2.4736154042        2.6748633680
 H          2.4636239040       -3.9913655434        4.0505485952
 H          2.3068832670       -6.3002961092        4.8691092350
 H          2.6704451210       -8.1911310555        3.3253325003
 H          3.1607606420       -7.7524395535        0.9455667983
 H          3.2909220716       -5.4425659475        0.1187066075
 H          4.7415137151       -3.5492370869        0.3339817533
 H          6.4584282482       -2.2717841195       -1.3230795781
 H          7.1594285308       -2.6067199263       -3.5723100429
 H          9.1489197696       -3.2951717422       -4.8386563412
 H         11.1217924833       -1.8167468917       -4.9477082356
 H         11.0944324867        0.3508406701       -3.7679337130
 H          9.1154723911        1.0303729341       -2.4815426916
 H          6.8689445193        1.6874222877       -2.8913087458
 H          4.9064689708        2.4483609676       -1.6370562314
 H          0.8955886219        0.8929457761       -0.0518721649
 H         -1.0540416510        0.8620678052       -0.0910734196
 H         -5.2560449138        2.1985522351       -1.4620311195
 H         -7.1854270082        1.3088137947       -2.6804661277
 H         -9.3496383872        0.4199494118       -2.2291101669
 H        -11.2984574570       -0.3965477245       -3.4821358579
 H        -11.1580027062       -2.5050131648       -4.7568600536
 H         -9.0485838282       -3.7858634665       -4.7767313532
 H         -7.0914893628       -2.9591972478       -3.5428841317
 H         -6.3531905240       -2.6545023947       -1.3015221542
 H         -4.4362473949       -3.8423507470        0.1994486145
 H         -0.2872147010       -4.5454686742        1.4622744415
 H          0.2102873518       -6.8496248668        2.1266699738
 H         -1.6156242307       -8.3730536730        2.7944564737
 H         -3.9473497313       -7.5634063974        2.7950559560
 H         -4.4480069614       -5.2467279146        2.1445761266
 H         -1.0790318125       -2.5429595460        2.5039337059
 H         -1.4809611838       -0.2071775484        1.8796235313
 H         -4.7345551748        2.8486668429        0.6994734012
 H         -3.5099148651        4.9770608897        1.0148448872
