  85
       -138.67917031
 F         -1.3236860238        5.2344264467       -0.7192742494
 C         -2.2544097176        4.2855925210       -0.5075987701
 F         -3.3818550395        4.9429562412       -0.1748419942
 F         -2.4872468409        3.7108243444       -1.6936232553
 C         -1.8367633265        3.3127821095        0.5578069077
 C         -1.5072049869        3.8066111988        1.8134124913
 C         -1.1268117457        2.9240214177        2.8099760678
 C         -1.0765183855        1.5657804329        2.5584121256
 C         -1.3973941598        1.0772054038        1.2939992851
 N         -1.3748493999       -0.2989962486        1.0388387999
 C         -0.3514251380       -1.2036854697        1.2123014020
 C          1.0243333154       -0.9212913857        1.5680600613
 C          1.6110149316        0.3433689971        1.5366070228
 C          2.9537536400        0.4994534091        1.8046689700
 C          3.7581481886       -0.6007398789        2.0909797192
 O          5.0827091891       -0.3500812047        2.3166947554
 C          6.0131138022       -1.3441747961        1.9317588058
 C          5.9201942225       -1.6352457820        0.4318312009
 C          6.2231656870       -0.3774493498       -0.3853505780
 C          5.5102757448       -0.3693356689       -1.7431494109
 N          4.1038953569       -0.0870671200       -1.6248774241
 C          3.0626393158       -0.9794834221       -1.7428856776
 C          3.0801832460       -2.3572096686       -1.9109451544
 C          1.8695285599       -3.0143344992       -2.0201679325
 C          0.6590770448       -2.3280989248       -1.9760636447
 C          0.6319413874       -0.9601142082       -1.8025531871
 C          1.8343458981       -0.2785494105       -1.6763744338
 C          2.1661139924        1.1036043345       -1.4896541493
 C          1.4082149298        2.2581433279       -1.3479398235
 C          2.0575906506        3.4618344070       -1.1639811176
 C          3.4492654424        3.5223279410       -1.1356510799
 C          4.2262004326        2.3893708965       -1.2865058585
 C          3.5785687296        1.1734355291       -1.4590183791
 C          3.1774388216       -1.8669450930        2.1305148331
 C          1.8325087870       -2.0174964098        1.8768129867
 N         -0.7507446783       -2.4109539052        0.9000267724
 C         -2.0466614008       -2.3283096203        0.4972724326
 C         -2.7745984384       -3.5268792909        0.1102283553
 C         -2.0491108799       -4.6474837088       -0.2941752242
 C         -2.7007122274       -5.8049472867       -0.6716155916
 C         -4.0848115790       -5.8647342189       -0.6445967340
 C         -4.8116448816       -4.7627630193       -0.2247964596
 C         -4.1652753758       -3.6011039377        0.1540471889
 C         -2.4594539904       -1.0093753465        0.5573671826
 C         -3.7159638593       -0.3648053523        0.1964633154
 C         -4.2735097611       -0.5952025905       -1.0609819690
 C         -5.4462203894        0.0346536183       -1.4298935265
 C         -6.0766013285        0.9040192542       -0.5539730742
 C         -5.5341972616        1.1318098041        0.6994290276
 C         -4.3619670056        0.5027780386        1.0755803081
 C         -1.7873902995        1.9553925893        0.2878612331
 H         -1.5526960964        4.8677679937        2.0020275796
 H         -0.8756170941        3.2974479432        3.7902002935
 H         -0.7816437984        0.8727322657        3.3320591327
 H          1.0424371058        1.2159153013        1.2608330106
 H          3.4067646693        1.4778224945        1.7658193084
 H          5.8792346242       -2.2636076567        2.5148592405
 H          6.9878799616       -0.9173486775        2.1816307034
 H          6.6101406288       -2.4406044088        0.1762539269
 H          4.9045526763       -1.9712735082        0.2132455534
 H          5.8888208214        0.4944757510        0.1801160286
 H          7.2992709313       -0.2854715873       -0.5429599347
 H          5.6331652354       -1.3349318095       -2.2390179227
 H          5.9599074916        0.3987528713       -2.3823816308
 H          4.0067979050       -2.9107224285       -1.9612742881
 H          1.8629199147       -4.0865877743       -2.1500680569
 H         -0.2651340315       -2.8762360527       -2.0758433297
 H         -0.3052207294       -0.4236074512       -1.7748591037
 H          0.3301846496        2.2117903285       -1.3861440808
 H          1.4841691302        4.3696817589       -1.0476779280
 H          3.9319834646        4.4784571357       -0.9948234388
 H          5.3035387330        2.4588784719       -1.2684120969
 H          3.7701534128       -2.7394093332        2.3586112640
 H          1.3785446235       -2.9951248603        1.8931262777
 H         -0.9718616420       -4.5855258664       -0.3013698093
 H         -2.1295661688       -6.6656286853       -0.9890602389
 H         -4.5955052945       -6.7686846701       -0.9428441034
 H         -5.8905547605       -4.8101936086       -0.1877879391
 H         -4.7399352611       -2.7536991722        0.4970028467
 H         -3.7751151033       -1.2685680837       -1.7430353387
 H         -5.8671482096       -0.1476975255       -2.4074452956
 H         -6.9893001359        1.4006738406       -0.8466340571
 H         -6.0251932954        1.8031365718        1.3884283803
 H         -3.9517407221        0.6732513057        2.0611505217
 H         -2.0502770362        1.5804915369       -0.6893731739
  85
       -138.67896491
 F         -1.3677335819        5.1445947699       -0.7766776661
 C         -2.3948648885        4.4147152446       -0.2975397746
 F         -3.2661617386        5.2987541526        0.2176246325
 F         -2.9937786143        3.8654639188       -1.3619617466
 C         -1.9403370428        3.4047816204        0.7169426560
 C         -1.5929260528        3.8409203635        1.9886900373
 C         -1.1629057099        2.9174972193        2.9266855045
 C         -1.0820704063        1.5767863705        2.6015209677
 C         -1.4175840579        1.1468381234        1.3194097467
 N         -1.3699997502       -0.2143005841        0.9964424503
 C         -0.3380078561       -1.1138794417        1.1479655541
 C          1.0337993464       -0.8234714923        1.5130157383
 C          1.6023543862        0.4500244585        1.5139822562
 C          2.9388865292        0.6193781049        1.8021323540
 C          3.7558687852       -0.4745683715        2.0783489798
 O          5.0698675932       -0.2026832932        2.3328622275
 C          6.0284859881       -1.1903209032        2.0064104960
 C          5.9952389536       -1.5273156781        0.5136203463
 C          6.2677052804       -0.2821150567       -0.3327738373
 C          5.6054676971       -0.3561839037       -1.7136974292
 N          4.1751118601       -0.2134718473       -1.6450670975
 C          3.2350989308       -1.2109620104       -1.7741052682
 C          3.4005523186       -2.5814026807       -1.9204916528
 C          2.2675481216       -3.3621801322       -2.0484484713
 C          0.9917660140       -2.8047332477       -2.0428825243
 C          0.8177352590       -1.4448900616       -1.8927980362
 C          1.9395912955       -0.6408647750       -1.7488812493
 C          2.1218309337        0.7706489280       -1.5782370011
 C          1.2443107162        1.8414153345       -1.4771993502
 C          1.7594304755        3.1091843312       -1.2978597844
 C          3.1359726066        3.3143629365       -1.2335479979
 C          4.0305335973        2.2668004372       -1.3444665933
 C          3.5179938696        0.9877768096       -1.5133144250
 C          3.1941414712       -1.7498092106        2.0816061734
 C          1.8549286545       -1.9142321656        1.8055856052
 N         -0.7271627555       -2.3170903651        0.8102414427
 C         -2.0265048763       -2.2385887224        0.4140127103
 C         -2.7461217826       -3.4383338268        0.0161695113
 C         -2.0116768677       -4.5789414925       -0.3101889708
 C         -2.6525609571       -5.7395277644       -0.6957403940
 C         -4.0364739300       -5.7837073089       -0.7553501205
 C         -4.7739186289       -4.6626421455       -0.4111719923
 C         -4.1380806502       -3.4981748100       -0.0233026267
 C         -2.4500160392       -0.9245316535        0.5028585406
 C         -3.7120136872       -0.2754945101        0.1651642545
 C         -4.2496740591       -0.4297490806       -1.1122724257
 C         -5.4237815834        0.2114273374       -1.4568003281
 C         -6.0748381078        1.0162516158       -0.5357178255
 C         -5.5521721790        1.1676789073        0.7374787234
 C         -4.3783281803        0.5274381172        1.0889891601
 C         -1.8525395220        2.0664925541        0.3707537107
 H         -1.6676296830        4.8878410447        2.2378194169
 H         -0.8978802084        3.2451478756        3.9195793800
 H         -0.7529400308        0.8520355046        3.3310537732
 H          1.0240850607        1.3197507014        1.2492861207
 H          3.3784397247        1.6044447258        1.7907256741
 H          5.8900530208       -2.0948213467        2.6116953992
 H          6.9864110315       -0.7383671457        2.2769145348
 H          6.7277371569       -2.3082746373        0.3049514175
 H          5.0033921663       -1.9141421468        0.2723159047
 H          5.8699443955        0.5894758297        0.1905675161
 H          7.3428076162       -0.1404588063       -0.4564631512
 H          5.8385586189       -1.3104583980       -2.1919020390
 H          6.0004369808        0.4457011009       -2.3474463826
 H          4.3805917622       -3.0360263832       -1.9395339545
 H          2.3758966388       -4.4309388379       -2.1628709452
 H          0.1313900217       -3.4453546134       -2.1593870634
 H         -0.1707294853       -1.0102143494       -1.8952216655
 H          0.1787124870        1.6799796967       -1.5420910082
 H          1.0937079479        3.9553750599       -1.2127794900
 H          3.5121545228        4.3177628617       -1.0974616841
 H          5.0939250172        2.4487324051       -1.2998259417
 H          3.7953564135       -2.6187546846        2.3005300008
 H          1.4159246999       -2.8987197160        1.7937805171
 H         -0.9359344158       -4.5292399607       -0.2474769097
 H         -2.0733200998       -6.6155996542       -0.9506157777
 H         -4.5392752802       -6.6898336045       -1.0605826407
 H         -5.8536907072       -4.6968189141       -0.4403206046
 H         -4.7244542983       -2.6379252321        0.2625913868
 H         -3.7357259004       -1.0540911748       -1.8287064427
 H         -5.8289059831        0.0890472064       -2.4501226105
 H         -6.9882399202        1.5224641501       -0.8089800715
 H         -6.0603139798        1.7872199300        1.4616449235
 H         -3.9820570439        0.6380679260        2.0886453702
 H         -2.1289482003        1.7400014744       -0.6197604279
  85
       -138.67592403
 F         -2.8955691124        5.4489970310        1.1887025673
 C         -2.4974840855        4.1880792863        1.4087381819
 F         -1.5452324044        4.2567264811        2.3612554679
 F         -3.5375992370        3.5517533120        1.9713252259
 C         -2.0010376808        3.4991350688        0.1700169404
 C         -1.6054961005        4.2336150269       -0.9386940718
 C         -1.1271626903        3.5646923735       -2.0537180428
 C         -1.0449309186        2.1856524408       -2.0635575325
 C         -1.4343479935        1.4538684146       -0.9429141522
 N         -1.3656467743        0.0580916149       -0.9611890115
 C         -0.3099286034       -0.7267811645       -1.3663300433
 C          1.0139903676       -0.2222120587       -1.6799225950
 C          1.5432693667        0.8873945785       -1.0272790819
 C          2.8208475061        1.3267353781       -1.3057415831
 C          3.6075517496        0.6637665444       -2.2423500393
 O          4.8743387275        1.0374238802       -2.5905610678
 C          5.6660651932        1.6974615250       -1.6186555010
 C          5.9138865098        0.7921438249       -0.3994185844
 C          5.5579520532        1.4096689274        0.9538735384
 C          5.2678272769        0.3194121382        1.9971383010
 N          4.0581317695       -0.4003450043        1.7011745735
 C          2.7881387077        0.0279319356        2.0136926849
 C          2.3752758156        1.1673962758        2.6912412060
 C          1.0214303315        1.3348406102        2.9141698795
 C          0.0923201024        0.3887132344        2.4863018737
 C          0.4909980096       -0.7361672782        1.7925273264
 C          1.8440183170       -0.9122667627        1.5368621173
 C          2.5931905070       -1.9322165884        0.8640059548
 C          2.2253763190       -3.0686562093        0.1574745582
 C          3.2189872911       -3.8591353385       -0.3819565707
 C          4.5625871298       -3.5342236794       -0.2101453053
 C          4.9509034173       -2.4018146157        0.4793513316
 C          3.9571165275       -1.5847236117        1.0032297472
 C          3.0813294148       -0.4539452086       -2.8924953688
 C          1.8072035992       -0.8931852302       -2.6108775723
 N         -0.6338786843       -1.9915770748       -1.3391195407
 C         -1.9234384361       -2.0725621011       -0.8987831215
 C         -2.5947198850       -3.3591463224       -0.7962866448
 C         -3.9843910123       -3.4687085420       -0.8017353659
 C         -4.5856227110       -4.7092377203       -0.7048936862
 C         -3.8150960327       -5.8564415204       -0.6090154802
 C         -2.4333389662       -5.7577626252       -0.6231944517
 C         -1.8270424165       -4.5207520657       -0.7188918212
 C         -2.3987824556       -0.8003495505       -0.6378217333
 C         -3.6741730386       -0.3176628485       -0.1202235238
 C         -4.4007569071        0.6560545215       -0.8027866713
 C         -5.5888764092        1.1322679050       -0.2806655513
 C         -6.0642229245        0.6466046963        0.9256107205
 C         -5.3512845986       -0.3274685014        1.6059328180
 C         -4.1633268808       -0.8079549467        1.0896306343
 C         -1.9165756560        2.1156342435        0.1804662816
 H         -1.6783893708        5.3096556317       -0.9301893601
 H         -0.8241587404        4.1249881975       -2.9243123850
 H         -0.6784912308        1.6640880395       -2.9347946623
 H          0.9729020112        1.4022823299       -0.2691122216
 H          3.1895115629        2.1957446282       -0.7853770705
 H          5.2109553416        2.6499844961       -1.3211216073
 H          6.5961494976        1.9219900034       -2.1447114288
 H          5.2961336921       -0.0957234504       -0.5462401332
 H          6.9546494486        0.4657776441       -0.3846523606
 H          6.3730352292        2.0426277598        1.3094243853
 H          4.6658962797        2.0313570585        0.8644399454
 H          5.1660825539        0.7759764271        2.9866754052
 H          6.0975520443       -0.3904664726        2.0347929063
 H          3.0820778195        1.9030720110        3.0457871599
 H          0.6744213452        2.2138277629        3.4374145915
 H         -0.9522331804        0.5372529658        2.7190387734
 H         -0.2253974548       -1.4734477322        1.4628474350
 H          1.1824401618       -3.3049947454        0.0207172752
 H          2.9585451822       -4.7444003277       -0.9424002685
 H          5.3209582054       -4.1786502216       -0.6305406638
 H          5.9992396281       -2.1692105995        0.5972277093
 H          3.6993260502       -0.9665594355       -3.6125845770
 H          1.4071279719       -1.7679602290       -3.0981747674
 H         -4.5945180258       -2.5829672932       -0.8954835643
 H         -5.6638100962       -4.7815365102       -0.7090534376
 H         -4.2904225768       -6.8233298885       -0.5313175835
 H         -1.8275187546       -6.6501611803       -0.5594357949
 H         -0.7521347009       -4.4328566938       -0.7398158605
 H         -4.0381725364        1.0291811403       -1.7506696192
 H         -6.1449858368        1.8862039036       -0.8180290808
 H         -6.9890242397        1.0248910672        1.3338870087
 H         -5.7199456967       -0.7099637421        2.5460357304
 H         -3.6015853791       -1.5643427556        1.6183179903
 H         -2.2223911057        1.5600635196        1.0520199800
