  69
  -117.105953354500       0.206254869195803      !
 C         -8.9916218149       -3.0671023107        0.7970133156
 C         -7.6841953884       -3.0950322365        1.2376580226
 C         -6.8152368708       -2.0614861660        0.9222663530
 C         -7.2438566418       -0.9750625546        0.1700309487
 C         -8.5632018097       -0.9739684295       -0.3019790121
 C         -9.4262018966       -2.0060667551        0.0169434037
 O         -9.0580389611        0.0207111659       -1.1076424486
 C         -8.2134470357        1.0521134223       -1.4318818702
 C         -8.7312049712        2.0584268827       -2.2261767494
 C         -7.9505118892        3.1523714822       -2.5685576003
 C         -6.6576367214        3.2396584090       -2.0937050197
 C         -6.1327955480        2.2317428856       -1.2990486453
 C         -6.8899557180        1.1127754029       -0.9756995424
 N         -6.3933642569        0.0816079842       -0.1725304305
 C         -5.0574230825        0.0972407742        0.2698512772
 C         -4.7696773535        0.1354335548        1.6347800455
 C         -3.4626074493        0.1369476882        2.0690972897
 C         -2.4183189558        0.1017252614        1.1426343350
 C         -1.0572445887        0.0938327649        1.6160343279
 N         -0.6637040983        0.1198723725        2.8576393167
 N          0.6722444850        0.0965397140        2.8542365345
 C          1.0582609827        0.0559983230        1.6106012043
 C          2.4164470534        0.0184125549        1.1304096905
 C          2.6948114292       -0.0288843828       -0.2357090813
 C          4.0017718580       -0.0616070039       -0.6740490443
 C          5.0505569507       -0.0493595477        0.2441861418
 N          6.3842136577       -0.0807964540       -0.2034562310
 C          7.2595102834        0.9680002527        0.0980401034
 C          6.8446695465        2.1124204396        0.7675554589
 C          7.7380036865        3.1353926765        1.0471325070
 C          9.0569149845        3.0378175585        0.6527265303
 C          9.4785089668        1.9182841655       -0.0487458124
 C          8.5906737348        0.8972738724       -0.3334749453
 O          9.0734653606       -0.1584215133       -1.0651018169
 C          8.2014912652       -1.1756839789       -1.3605117010
 C          8.7048591892       -2.2374151431       -2.0892506727
 C          7.8972407299       -3.3221316957       -2.3963392696
 C          6.5912591630       -3.3437312693       -1.9510522171
 C          6.0807499213       -2.2799608187       -1.2227177734
 C          6.8656266485       -1.1697982066       -0.9372499507
 C          4.7703067051       -0.0040262372        1.6106294123
 C          3.4660825527        0.0301240594        2.0515112621
 O         -0.0020125726        0.0521659622        0.7660429195
 C         -2.7044111202        0.0715956813       -0.2224232395
 C         -4.0138982388        0.0692160789       -0.6539832468
 H         -9.6727094527       -3.8662111965        1.0431641440
 H         -7.3239952544       -3.9229830925        1.8285413456
 H         -5.7914803091       -2.1077416078        1.2584966560
 H        -10.4346668911       -1.9627335926       -0.3622806247
 H         -9.7519474789        1.9688614502       -2.5617137912
 H         -8.3620213310        3.9309893666       -3.1911371683
 H         -6.0444434815        4.0947886944       -2.3328614596
 H         -5.1271975890        2.3224089671       -0.9193855920
 H         -5.5817241820        0.1706496867        2.3454704402
 H         -3.2210407676        0.1711941079        3.1191858817
 H          1.8828072479       -0.0315344444       -0.9470848043
 H          4.2222352167       -0.0878931514       -1.7309167275
 H          5.8131645562        2.2110987421        1.0672044009
 H          7.3882716876        4.0096124427        1.5742450663
 H          9.7573808539        3.8276331064        0.8733138908
 H         10.4960628278        1.8194730525       -0.3915522264
 H          9.7362793743       -2.1980043997       -2.4008336318
 H          8.2976562404       -4.1442694959       -2.9680046487
 H          5.9559010147       -4.1898293866       -2.1627052632
 H          5.0643118337       -2.3210288456       -0.8640672855
 H          5.5862292096       -0.0042557183        2.3177920759
 H          3.2306877855        0.0580701118        3.1031696200
 H         -1.8963479543        0.0393770649       -0.9375795177
 H         -4.2407557398        0.0352937508       -1.7093205932
  69
  -117.105870989000       0.189039102639980      !
 C         -8.7970432791        2.8319388558        1.9157110752
 C         -7.4879155232        2.6373745798        2.3063293424
 C         -6.6804831839        1.7357422199        1.6296104529
 C         -7.1742302995        1.0047366163        0.5565251345
 C         -8.4958708507        1.2309224232        0.1499036628
 C         -9.2968351027        2.1305612471        0.8285599281
 O         -9.0526778582        0.5983080289       -0.9335661806
 C         -8.2634690179       -0.2851786079       -1.6259811677
 C         -8.8394994587       -0.9237041204       -2.7085136306
 C         -8.1156732505       -1.8535396847       -3.4401220150
 C         -6.8202138535       -2.1507978652       -3.0691469165
 C         -6.2371293456       -1.5123381554       -1.9849301982
 C         -6.9382428367       -0.5567750979       -1.2605459466
 N         -6.3838834945        0.0989358178       -0.1574297089
 C         -5.0507165167       -0.1443727782        0.2259261744
 C         -4.7701990378       -0.7132639067        1.4683709435
 C         -3.4661635702       -0.9467771762        1.8462160682
 C         -2.4188892529       -0.6089515180        0.9866688703
 C         -1.0596757983       -0.8507286503        1.4013529067
 N         -0.6698432204       -1.4449197410        2.4929480758
 N          0.6664015371       -1.4562795199        2.4868859063
 C          1.0560936267       -0.8658744342        1.3927955508
 C          2.4153798175       -0.6332142739        0.9747567487
 C          2.6958483068        0.1148378559       -0.1689844743
 C          4.0031482632        0.3449593159       -0.5411234846
 C          5.0514774640       -0.1737874777        0.2178890046
 N          6.3847641851        0.0678073409       -0.1594123323
 C          7.2541742722        0.7541782962        0.6962204096
 C          6.8461430580        1.2592697022        1.9245096943
 C          7.7346844267        1.9360367133        2.7460973298
 C          9.0421003706        2.1315510647        2.3500421355
 C          9.4557426780        1.6666517448        1.1109438315
 C          8.5727651242        0.9933418557        0.2868832002
 O          9.0480736666        0.6002900912       -0.9388453915
 C          8.1819696633       -0.0620473919       -1.7711021348
 C          8.6773058926       -0.4596313589       -2.9993605939
 C          7.8761306185       -1.1680466313       -3.8820051721
 C          6.5859207384       -1.4934410653       -3.5160447341
 C          6.0835771157       -1.0941857394       -2.2869010843
 C          6.8599408758       -0.3503195863       -1.4069403497
 C          4.7687907986       -0.9303667419        1.3563358411
 C          3.4638384512       -1.1555159079        1.7349697038
 O         -0.0016852172       -0.4556240791        0.6514065936
 C         -2.6984002252       -0.0421909439       -0.2569392583
 C         -4.0050201467        0.1854006413       -0.6342669304
 H         -9.4295818080        3.5307443080        2.4398601514
 H         -7.0784702942        3.1883269452        3.1389740538
 H         -5.6539699177        1.6071806761        1.9351519663
 H        -10.3091283428        2.2717072994        0.4851384400
 H         -9.8600851894       -0.6823436257       -2.9590311140
 H         -8.5729325493       -2.3449063935       -4.2843056816
 H         -6.2502929655       -2.8858320634       -3.6162120993
 H         -5.2303112237       -1.7682200914       -1.6942291797
 H         -5.5855423022       -0.9746644746        2.1260916669
 H         -3.2301515162       -1.3938637614        2.7983145115
 H          1.8848816133        0.5246656261       -0.7519432894
 H          4.2244529040        0.9375705755       -1.4164623587
 H          5.8230048385        1.1327267192        2.2413063028
 H          7.3896676925        2.3114344333        3.6970865725
 H          9.7387201496        2.6521669803        2.9877799396
 H         10.4629933688        1.8222739168        0.7590452789
 H          9.6975039331       -0.2092729392       -3.2424904321
 H          8.2697811285       -1.4706339427       -4.8393780944
 H          5.9570403667       -2.0648997374       -4.1812154295
 H          5.0803820225       -1.3743809949       -2.0067814596
 H          5.5832407157       -1.3425777147        1.9329595906
 H          3.2273847005       -1.7376206014        2.6110250211
 H         -1.8873580731        0.2227143093       -0.9183777305
 H         -4.2273536229        0.6300397598       -1.5930694204
  69
  -117.105845204900       0.183950975449633      !
 C         -7.8825217103       -3.7104789696       -1.1804915221
 C         -6.6140760673       -3.5957573037       -0.6490737632
 C         -6.1075050128       -2.3513289922       -0.3064997265
 C         -6.8580264271       -1.1986520996       -0.5018681111
 C         -8.1597002035       -1.3305822170       -1.0030392205
 C         -8.6590276669       -2.5734136638       -1.3463483036
 O         -8.9996630232       -0.2574882013       -1.1609387977
 C         -8.5225623381        0.9787680188       -0.8031050010
 C         -9.3823127098        2.0494153280       -0.9644150092
 C         -8.9637075861        3.3361099977       -0.6603067264
 C         -7.6747483459        3.5427829516       -0.2127929902
 C         -6.8091521717        2.4721329264       -0.0472726559
 C         -7.2230921198        1.1735626650       -0.3157625667
 N         -6.3764478231        0.0705321263       -0.1657445601
 C         -5.0461281549        0.2336173304        0.2633198616
 C         -4.7686537279        0.7494483418        1.5297255163
 C         -3.4642283263        0.9012829929        1.9470060469
 C         -2.4135222947        0.5375817084        1.1023846285
 C         -1.0530367386        0.6926061342        1.5512342942
 N         -0.6524661877        1.1513818874        2.7027595657
 N          0.6837181905        1.1169341501        2.7041061548
 C          1.0623859134        0.6387746026        1.5528390773
 C          2.4147921246        0.4203162470        1.1062094154
 C          2.6747867271       -0.0429836336       -0.1839639613
 C          3.9740209976       -0.2479332429       -0.5964891041
 C          5.0349116521        0.0005833116        0.2735003427
 N          6.3593930918       -0.2153402743       -0.1474701930
 C          7.2801092249        0.8381230558       -0.1724886566
 C          6.9255664641        2.1432188570        0.1458910261
 C          7.8623757064        3.1646903983        0.1054827131
 C          9.1653807611        2.9030242908       -0.2663308382
 C          9.5269267220        1.6125190272       -0.6223402246
 C          8.5959444316        0.5908123873       -0.5855889901
 O          9.0219125684       -0.6496549300       -0.9883668152
 C          8.1050552216       -1.6699381521       -0.9719970052
 C          8.5503951270       -2.9150017640       -1.3764529673
 C          7.6955072900       -4.0065466471       -1.3550269591
 C          6.4008604852       -3.8450596248       -0.9053182958
 C          5.9491866970       -2.5984000749       -0.4997971705
 C          6.7813056399       -1.4869414524       -0.5504724528
 C          4.7729135128        0.4641801228        1.5637875599
 C          3.4761814904        0.6749945756        1.9771977263
 O         -0.0026329066        0.3469428712        0.7670416494
 C         -2.6900252168        0.0220002127       -0.1643710389
 C         -3.9956368882       -0.1277422819       -0.5791783134
 H         -8.2786119208       -4.6753013491       -1.4549632549
 H         -6.0058156152       -4.4730044433       -0.4911773546
 H         -5.1215017263       -2.2783975936        0.1250193516
 H         -9.6620176312       -2.6294118131       -1.7379595454
 H        -10.3750503293        1.8538234750       -1.3370746774
 H         -9.6421612288        4.1648135938       -0.7867220337
 H         -7.3263854849        4.5398105790        0.0084475049
 H         -5.7988333461        2.6527361462        0.2845451288
 H         -5.5856769961        1.0165708518        2.1828927974
 H         -3.2309547438        1.2900803624        2.9249322050
 H          1.8541624548       -0.2303418796       -0.8599321616
 H          4.1795802862       -0.5939810078       -1.5986461796
 H          5.9069237845        2.3682486409        0.4198306083
 H          7.5582465731        4.1670705783        0.3644019978
 H          9.8989300716        3.6930284605       -0.2946903113
 H         10.5300018157        1.3764600606       -0.9396317996
 H          9.5748643363       -3.0091400018       -1.6992595614
 H          8.0504420129       -4.9729187164       -1.6760372640
 H          5.7285416316       -4.6879533950       -0.8603780577
 H          4.9411657854       -2.4944227112       -0.1305115922
 H          5.5969601350        0.6461814282        2.2374700662
 H          3.2558596535        1.0266074821        2.9723101066
 H         -1.8767818430       -0.2531917071       -0.8188231229
 H         -4.2151461494       -0.5224345251       -1.5600642082
  69
  -117.105761278600       0.168318649582872      !
 C         -7.7245508940       -2.8785591277       -2.7206617457
 C         -6.4319764318       -2.9034377489       -2.2379212275
 C         -5.9750496708       -1.8944049246       -1.4039249377
 C         -6.8000255116       -0.8345174585       -1.0484202218
 C         -8.1230026135       -0.8418857633       -1.5098524931
 C         -8.5732370029       -1.8488747526       -2.3437323079
 O         -9.0337559061        0.1192883616       -1.1520028693
 C         -8.6091579928        1.1084413603       -0.3010505523
 C         -9.5429390364        2.0613695203        0.0618970281
 C         -9.1830898949        3.1160935935        0.8869410382
 C         -7.8789368272        3.2197098204        1.3261597811
 C         -6.9395364480        2.2650574703        0.9673967910
 C         -7.2924373458        1.1815389564        0.1726887985
 N         -6.3709430350        0.2005678787       -0.2102834543
 C         -5.0423381310        0.2398728081        0.2498538574
 C         -4.7661760059        0.1870026450        1.6169487907
 C         -3.4635295833        0.2101360298        2.0639023124
 C         -2.4108943266        0.2797107757        1.1488701850
 C         -1.0534985995        0.2702335506        1.6326607924
 N         -0.6679548436        0.2712544104        2.8771093908
 N          0.6677433685        0.2327182941        2.8818660634
 C          1.0616567825        0.2089812605        1.6403148246
 C          2.4210357716        0.1357543308        1.1672542929
 C          2.7051100600        0.1028701497       -0.1982254497
 C          4.0100989554       -0.0024409680       -0.6303220644
 C          5.0516147109       -0.0759162221        0.2933632735
 N          6.3808667344       -0.2081417267       -0.1498505343
 C          6.9665466398        0.7770760098       -0.9505843149
 C          6.3162415839        1.9653037708       -1.2591726728
 C          6.9272599107        2.9246015774       -2.0523290754
 C          8.2014431267        2.7182640383       -2.5405341235
 C          8.8779475038        1.5528861079       -2.2124843357
 C          8.2743316773        0.5947566424       -1.4192714594
 O          9.0202504824       -0.5141188585       -1.1090277858
 C          8.4401486940       -1.4631648215       -0.3051764366
 C          9.2046792125       -2.5742447454       -0.0006913001
 C          8.6787591874       -3.5951003626        0.7766936193
 C          7.3782284470       -3.5028084533        1.2287504248
 C          6.6078539682       -2.3899403843        0.9275644079
 C          7.1304966075       -1.3430847465        0.1786069777
 C          4.7672292428       -0.0269366353        1.6586342670
 C          3.4643447860        0.0767467447        2.0935090765
 O          0.0069951585        0.2348984426        0.7889915387
 C         -2.6852599225        0.3391954902       -0.2177041681
 C         -3.9902510458        0.3230018424       -0.6616556112
 H         -8.0832834844       -3.6577527341       -3.3743776923
 H         -5.7658105739       -3.7105433223       -2.5010159190
 H         -4.9682540928       -1.9392065509       -1.0196517754
 H         -9.5961273611       -1.8106085881       -2.6824605705
 H        -10.5465298873        1.9622675113       -0.3197040211
 H         -9.9190036146        3.8527308173        1.1678070735
 H         -7.5764846503        4.0466628229        1.9498982399
 H         -5.9201969982        2.3715779212        1.3032718817
 H         -5.5827076132        0.1129801758        2.3195178401
 H         -3.2316599688        0.1597147933        3.1155322324
 H          1.8975970342        0.1448676807       -0.9134412798
 H          4.2339197731       -0.0417132608       -1.6861155921
 H          5.3271068647        2.1478274096       -0.8693051140
 H          6.3961647523        3.8361352344       -2.2795879363
 H          8.6794244663        3.4589352931       -3.1619270783
 H          9.8823263459        1.3690131366       -2.5589067454
 H         10.2097217970       -2.6229648108       -0.3882595689
 H          9.2834277507       -4.4566645364        1.0113562588
 H          6.9464063317       -4.2973628814        1.8174188974
 H          5.5868605082       -2.3429422174        1.2720370075
 H          5.5788924264       -0.0679202113        2.3694742539
 H          3.2259125991        0.1169142951        3.1441063979
 H         -1.8715441141        0.4045072558       -0.9241690671
 H         -4.2075302220        0.3780518864       -1.7180469100
  69
  -117.105566639600       0.136987943848513      !
 C         -7.5557882655       -2.8638498389       -2.8273067009
 C         -6.2649076207       -2.8441794009       -2.3398270138
 C         -5.8572321754       -1.8408356055       -1.4740374520
 C         -6.7306668053       -0.8304423361       -1.0907929960
 C         -8.0506389049       -0.8847670868       -1.5577581536
 C         -8.4517427036       -1.8857887978       -2.4233180992
 O         -9.0060688604        0.0217057935       -1.1745951426
 C         -8.6286345042        1.0071283266       -0.2974868470
 C         -9.6050868882        1.9078763341        0.0860812974
 C         -9.2946319915        2.9567906507        0.9382308104
 C         -7.9972861129        3.1079970111        1.3839693008
 C         -7.0152662985        2.2053615305        1.0050166296
 C         -7.3177553957        1.1271100970        0.1827739318
 N         -6.3521910200        0.1984615698       -0.2208082787
 C         -5.0302267127        0.2790421003        0.2522372046
 C         -3.9752992565        0.4248520498       -0.6481487359
 C         -2.6746136956        0.4670718344       -0.1939832020
 C         -2.4077263551        0.3730021990        1.1721448404
 C         -1.0523376504        0.3688654002        1.6612592833
 N         -0.6682013803        0.3399486266        2.9057625477
 N          0.6676363112        0.2995885864        2.9108225831
 C          1.0625330992        0.3048506607        1.6694253805
 C          2.4201724619        0.2249887827        1.1923841061
 C          2.7017213184        0.2502612614       -0.1737665029
 C          4.0018303035        0.1209685709       -0.6142621667
 C          5.0398456450       -0.0375085324        0.3022802318
 N          6.3627302829       -0.2074152077       -0.1478659850
 C          6.9991695723        0.7892225730       -0.8932036786
 C          6.4024222410        2.0164831418       -1.1528109245
 C          7.0643934208        2.9865150275       -1.8901982224
 C          8.3366305396        2.7510721097       -2.3702911787
 C          8.9593660563        1.5435378722       -2.0914003729
 C          8.3048075315        0.5742440587       -1.3542635625
 O          8.9991364672       -0.5794304313       -1.0903036331
 C          8.3623503155       -1.5482112693       -0.3558579059
 C          9.0678886152       -2.7119897102       -0.1118084407
 C          8.4812320175       -3.7524157130        0.5928859274
 C          7.1796171259       -3.6253532428        1.0331752490
 C          6.4684429533       -2.4594518516        0.7930857662
 C          7.0525432212       -1.3952154881        0.1176937450
 C          4.7591727960       -0.0423849318        1.6691371360
 C          3.4615463910        0.0879049601        2.1124406441
 O          0.0089477967        0.3547045305        0.8181288547
 C         -3.4639527193        0.2496750671        2.0771935712
 C         -4.7622229728        0.1995696308        1.6197330421
 H         -7.8762061140       -3.6380357582       -3.5062813402
 H         -5.5613579103       -3.6113323537       -2.6243929355
 H         -4.8510147737       -1.8526138991       -1.0859168321
 H         -9.4745592622       -1.8845453607       -2.7644477771
 H        -10.6026311031        1.7729753002       -0.3003462964
 H        -10.0635798149        3.6522024971        1.2352513258
 H         -7.7337125710        3.9319232095        2.0289266413
 H         -6.0021448015        2.3490548609        1.3459795511
 H         -4.1870900331        0.5057230189       -1.7040168012
 H         -1.8584884675        0.5780434874       -0.8918677964
 H          1.8952607641        0.3543596423       -0.8838504491
 H          4.2230467638        0.1249225266       -1.6713341226
 H          5.4160769656        2.2211711547       -0.7669475317
 H          6.5745809137        3.9290999772       -2.0802862961
 H          8.8545584146        3.5005930090       -2.9474082654
 H          9.9608185258        1.3351266998       -2.4324610245
 H         10.0751856906       -2.7860068544       -0.4891517051
 H          9.0399264599       -4.6556585370        0.7801058525
 H          6.7008513291       -4.4332643541        1.5646390591
 H          5.4462580664       -2.3827070058        1.1286574443
 H          5.5697781331       -0.1493279701        2.3743218723
 H          3.2255131700        0.0844558997        3.1643567835
 H         -3.2378372780        0.1758645112        3.1287141070
 H         -5.5807190609        0.0804170048        2.3137401873
  69
  -117.105404978700       0.115448459283198      !
 C         -7.5134752523       -3.7794045044       -1.4584180706
 C         -6.2244688404       -3.5617709624       -1.0163136705
 C         -5.8288000576       -2.2991762398       -0.6018067324
 C         -6.7126024151       -1.2275743678       -0.6352584686
 C         -8.0303114200       -1.4693819427       -1.0457443966
 C         -8.4195583506       -2.7297874518       -1.4606112964
 O         -8.9949041094       -0.4942076615       -1.0399281887
 C         -8.6291922200        0.7557892864       -0.6078707770
 C         -9.6146763889        1.7255888285       -0.5993537566
 C         -9.3163598695        3.0239423554       -0.2145730088
 C         -8.0221284938        3.3465982178        0.1396192604
 C         -7.0310276942        2.3768944113        0.1360339695
 C         -7.3212097908        1.0630795671       -0.2100670020
 N         -6.3463303246        0.0597525340       -0.2264101421
 C         -5.0255329139        0.3286307823        0.1752626260
 C         -4.7567616872        0.7805864839        1.4680981166
 C         -3.4589821983        1.0141390134        1.8667097737
 C         -2.4042680081        0.7921743155        0.9791335053
 C         -1.0476608499        0.9847710455        1.4252993411
 N         -0.6565875281        1.4315912629        2.5847558601
 N          0.6799435959        1.4040911715        2.5937376571
 C          1.0678570403        0.9412621344        1.4395028352
 C          2.4212239260        0.6912126293        1.0123830559
 C          2.6878196484        0.2310484925       -0.2774910349
 C          3.9824711180       -0.0519867461       -0.6562256598
 C          5.0310845732        0.1114798991        0.2482781868
 N          6.3443709390       -0.2191733574       -0.1317000080
 C          7.3616890320        0.7408229165       -0.1111858484
 C          7.1221894515        2.0712770212        0.2090895576
 C          8.1541628333        2.9973334659        0.2169259808
 C          9.4395611517        2.6134733813       -0.1070518429
 C          9.6885875696        1.2973654949       -0.4657538761
 C          8.6623338987        0.3708832721       -0.4783906747
 O          8.9814115173       -0.9008641695       -0.8830784803
 C          7.9751876255       -1.8330633715       -0.8937503720
 C          8.3168465034       -3.1156170801       -1.2817556040
 C          7.3655951292       -4.1244929197       -1.2829549730
 C          6.0787649885       -3.8438051773       -0.8712626086
 C          5.7307254840       -2.5588105026       -0.4838451386
 C          6.6613918262       -1.5275315339       -0.5142552463
 C          4.7647485656        0.5883858326        1.5326042573
 C          3.4726853662        0.8791072179        1.9116445100
 O          0.0091354838        0.6583260282        0.6418363073
 C         -2.6723256290        0.3549335382       -0.3184180730
 C         -3.9723662968        0.1297376151       -0.7168527219
 H         -7.8243691388       -4.7576930052       -1.7889821888
 H         -5.5132152947       -4.3727362657       -0.9845495261
 H         -4.8236842882       -2.1512310065       -0.2396822255
 H         -9.4408960039       -2.8691742784       -1.7767386425
 H        -10.6095586910        1.4435288018       -0.9047390230
 H        -10.0922004316        3.7729870240       -0.2076827238
 H         -7.7680377845        4.3573065292        0.4193340636
 H         -6.0205178184        2.6496400970        0.3963955855
 H         -5.5740423334        0.9280931060        2.1580720824
 H         -3.2322689415        1.3497000856        2.8658380397
 H          1.8760749542        0.1008522125       -0.9771229259
 H          4.1941563655       -0.4034285016       -1.6552034677
 H          6.1197018659        2.3910731871        0.4460216429
 H          7.9389670021        4.0225385836        0.4756760286
 H         10.2469601279        3.3283302896       -0.0962193544
 H         10.6760218645        0.9677358252       -0.7467062082
 H          9.3373205934       -3.3044953763       -1.5741756305
 H          7.6400612339       -5.1208273076       -1.5911967816
 H          5.3319156991       -4.6222018284       -0.8426983902
 H          4.7261418981       -2.3617488798       -0.1444227348
 H          5.5785532189        0.7093634309        2.2317825111
 H          3.2470478318        1.2336778086        2.9044416418
 H         -1.8573135084        0.1975926355       -1.0086451497
 H         -4.1850084944       -0.2022915492       -1.7222550612
