79
 energy: -132.854157089623 gnorm: 0.000079793827 xtb: 6.7.1 (edcfbbe)
N           10.65100391670243        1.17582023995989        0.64535163946040
C            9.62139749335399        0.72795085478185        0.40176110739781
C            8.36428003262423        0.17215770443235        0.10032603558376
C            8.28592610973620       -1.05442576616896       -0.56126743318355
C            7.05780789421272       -1.60849815434818       -0.85447732012709
C            5.87031887091261       -0.96127847429072       -0.49990485597748
N            4.67485992522081       -1.49205743809769       -0.74369768889897
C            3.55900837656987       -0.85731050448507       -0.39757091924734
C            2.22282145626406       -1.44870050578800       -0.56059986363028
C            1.47556543285111       -1.71726839604941        0.58620198151165
C            0.14583696034548       -2.06352252881212        0.49533577692174
C           -0.47364081969798       -2.12011535617804       -0.75007605060886
N           -1.87525334016892       -2.29346800694879       -0.82654020339767
C           -2.68240146995516       -1.23038210563035       -1.24003740960807
C           -2.15812249404092       -0.06406004934474       -1.78394758521175
C           -2.98674823760478        0.97328316959064       -2.18056519844158
C           -4.35674387145081        0.86529407918941       -2.04381935384617
C           -4.89618728277031       -0.28412571130987       -1.48967765007185
C           -4.07296139762779       -1.31911744190520       -1.08313013458856
O           -4.68093355880613       -2.40533668668900       -0.51401913058108
C           -3.87535411833162       -3.42014212885259       -0.06919440206927
C           -4.49553063432812       -4.50165256790286        0.53023389057748
C           -3.74561160877017       -5.58055019218405        0.97217809722174
C           -2.37522471889926       -5.57861898316775        0.79454733157427
C           -1.74789777146368       -4.49637688003029        0.19942953596151
C           -2.48191660761704       -3.39241243938637       -0.21982414737585
C            0.29140449261432       -1.95517125284238       -1.90100138564630
C            1.63222366483239       -1.63057058066967       -1.80667217519567
C            3.63302808514263        0.41452249013673        0.19844081313542
C            2.36034045927906        1.12188443559818        0.41904569116322
C            1.83235229829230        1.33637964848043        1.68693187106056
C            0.53177096929469        1.78390312173165        1.83248035351738
C           -0.25349409465137        2.03629835965264        0.71150795665987
N           -1.62820779711833        2.34118008662500        0.83935300333825
C           -2.51858526660572        1.35939610717649        1.28291579983702
C           -2.09011346759916        0.14803663612521        1.81191057336720
C           -2.99973225555491       -0.80635492476976        2.23820470423190
C           -4.35703464516603       -0.56845462764932        2.14711941797384
C           -4.80274313042623        0.62760371038139        1.60869585189754
C           -3.89888673363515        1.57989507106919        1.17221516386927
O           -4.42004080181479        2.71885551436502        0.62055162225950
C           -3.53734307079836        3.65620007055925        0.15279336665172
C           -4.07235154648565        4.79501970852069       -0.42219199421284
C           -3.23923031582060        5.80177033020016       -0.88468711791824
C           -1.87009337531041        5.67053127704266       -0.75140094550716
C           -1.32829909165183        4.53035313465128       -0.18096751830672
C           -2.14863896903421        3.49677204759596        0.25725282852192
C            0.31486441040244        1.93937933305887       -0.55569822807250
C            1.60334691222658        1.47392029743384       -0.69749139624643
N            4.80684214749673        0.95496345431446        0.47585645498249
C            5.95011152029883        0.31783419477691        0.17301401452002
C            7.19361677802362        0.85397085359889        0.46241931103687
H            9.19418527282187       -1.56802704166582       -0.83933356116588
H            6.98426971828981       -2.55979138164653       -1.35758231758995
H            1.94178651917820       -1.62988292493749        1.55628463465214
H           -0.42980171514065       -2.26313511239500        1.38610320763142
H           -1.08983090002175        0.03395232381195       -1.88676043486739
H           -2.55391242961439        1.86991314053495       -2.59934398801554
H           -5.00457806504963        1.67011021245261       -2.35234060161089
H           -5.95944907218818       -0.39639532816920       -1.35318539588300
H           -5.56827352326060       -4.48124016051221        0.63616364112342
H           -4.23678392236645       -6.41873397011385        1.44024950351131
H           -1.78289158353018       -6.42163224333665        1.11471386601045
H           -0.67931774296659       -4.50846023134686        0.05131084100375
H           -0.17642146742682       -2.05925936571931       -2.86885284089032
H            2.21741679359003       -1.47980058329484       -2.70133078545207
H            2.43098707122665        1.11888796155319        2.55865045241717
H            0.11040864251737        1.91910978128951        2.81763347512482
H           -1.03328707750018       -0.05140495994083        1.87919804094902
H           -2.64014100196763       -1.74048143114397        2.64415399606736
H           -5.06780582201932       -1.30820006554140        2.47905744257535
H           -5.85444325974419        0.84078327520638        1.50747138555323
H           -5.14514707940912        4.87579612416081       -0.49292537312793
H           -3.66439009043816        6.68525599769159       -1.33365432624430
H           -1.21183218024256        6.45660880393349       -1.08720468044274
H           -0.25909905680202        4.44197637962918       -0.06729423992183
H           -0.27035525821571        2.20159167240427       -1.42368953925619
H            2.02569828542878        1.35646398112959       -1.68436241961352
H            7.24859616186358        1.80734569381577        0.96431386708622
