79
 energy: -132.854701327119 gnorm: 0.000057458462 xtb: 6.7.1 (edcfbbe)
N           10.40142539277280        0.10012837519326        0.27147536379314
C            9.32026058586432       -0.27566772288036        0.17279997953097
C            7.99822856573931       -0.74272480457480        0.05171078953287
C            7.75839685612542       -2.09295651997563       -0.21405676936992
C            6.46679578355988       -2.56057926461009       -0.32605307921617
C            5.37388061550340       -1.70045549642076       -0.17790461133666
N            4.11828388395160       -2.13118732103335       -0.23868577582493
C            3.08530222436411       -1.30137713366459       -0.09043195808727
C            1.73449628307073       -1.85121178283768       -0.07310830992314
C            0.78226341011600       -1.39048466805135        0.84138433915902
C           -0.51423143887121       -1.85080408494482        0.79045610537930
C           -0.88636334644983       -2.78891009838846       -0.16917744140737
N           -2.24141524032840       -3.18829815776681       -0.26035008969850
C           -3.20293268645965       -2.26414004598528       -0.65906587944043
C           -2.86455822353239       -0.99219523618898       -1.10801316888540
C           -3.84681158716682       -0.09377340689856       -1.49069261250008
C           -5.18007191733619       -0.45161679476586       -1.43829302003885
C           -5.53289364505754       -1.72620754070409       -1.02212627854518
C           -4.55706102717840       -2.63096646954152       -0.64451944976199
O           -4.97068866050696       -3.88299600176964       -0.27200673119976
C           -4.00628378452703       -4.79651265392308        0.06994223806987
C           -4.43266118788628       -6.06663313490581        0.41281873782329
C           -3.51372923085870       -7.03102305116353        0.79754209399010
C           -2.16985787192410       -6.71339602295646        0.84983060207249
C           -1.73518778636087       -5.44396875344038        0.50544185295687
C           -2.64117420255760       -4.47265623591606        0.09512105218513
C            0.07022785668613       -3.30651022026076       -1.03602193529291
C            1.37055122282946       -2.84697891361355       -0.98091240079371
C            3.32658782864464        0.08105237123490        0.05497942387279
C            2.22758232067252        1.04760436836259        0.05752890570722
C            2.20149922569568        2.07979138152539        0.99380519978148
C            1.12526648560435        2.94301675335350        1.05593934258498
C            0.06498564259107        2.79515301749006        0.16859305796209
N           -1.07896464413761        3.62283826821071        0.26160884289578
C           -2.30279915764603        3.06528467131638        0.62248000874157
C           -2.42070076748582        1.74102462935211        1.02979180617899
C           -3.65427219958175        1.21614432521264        1.37825597261694
C           -4.78747643765552        2.00470745568080        1.33194413734040
C           -4.68285004263365        3.33532820099052        0.95684965654180
C           -3.45318541676997        3.86816616252584        0.61408572365135
O           -3.41450111944696        5.19690050090991        0.28218561861632
C           -2.19275242071477        5.74208627721667       -0.02069332933624
C           -2.16081332243294        7.09178265146929       -0.32062370856737
C           -0.96435661446123        7.70212492425579       -0.66462452804400
C            0.19498272058400        6.95225737906151       -0.71969847693969
C            0.17089194709856        5.60027749739807       -0.41844939416733
C           -1.01608430394930        4.97836338285724       -0.04874597953447
C            0.11738184287055        1.80998397009938       -0.81415122457133
C            1.18959281197004        0.94743015221135       -0.87165336614519
N            4.56804340990130        0.52767387262557        0.16228333506728
C            5.62159813773409       -0.29889899777747        0.07680204689382
C            6.92700215812767        0.14953022677060        0.19307818015311
H            8.59322522538272       -2.76853307502761       -0.32713582250842
H            6.26877734600419       -3.60335712954031       -0.51843344106917
H            1.06715671225298       -0.67487726961405        1.59782814631468
H           -1.25333087159909       -1.48782923490001        1.48968197415376
H           -1.82515016745244       -0.70826570181264       -1.15568801488602
H           -3.56293630307065        0.89036872256139       -1.82945422494734
H           -5.94642150840035        0.24962111950832       -1.72695246537705
H           -6.56324323411816       -2.04180216122687       -0.98756753149927
H           -5.48923819647234       -6.27836751742314        0.37794302709633
H           -3.85434183179109       -8.01935764611329        1.06205134630211
H           -1.44757336682117       -7.45135383950072        1.16245217143209
H           -0.68611970829488       -5.19991585690605        0.56200492063665
H           -0.21652779901663       -4.05194379178711       -1.76316335362686
H            2.11396428761731       -3.23107019674098       -1.66231282311509
H            3.02010954294047        2.17825125492550        1.69002321066743
H            1.09127230401933        3.72213709649893        1.80313644586844
H           -1.53917250748742        1.12113051199095        1.07266120909219
H           -3.72434331978663        0.18440518069505        1.68561790785774
H           -5.74980251088517        1.59536135465065        1.59408391335196
H           -5.54546229614077        3.98146501441641        0.92839219353897
H           -3.08515232281249        7.64560098758055       -0.28490202827138
H           -0.94784008087998        8.75525681306457       -0.89569359813705
H            1.12904364221443        7.41308845300442       -1.00094528469642
H            1.07792696528205        5.01974062865798       -0.47784439400981
H           -0.69168771664020        1.72808835354251       -1.52507184602486
H            1.23093579459363        0.19270443483480       -1.64258172609857
H            7.10722369202333        1.19615904002877        0.38307873408495
