79
 energy: -132.901994498412 gnorm: 0.000091099949 xtb: 6.7.1 (edcfbbe)
N           10.62167825487359        1.08566850973187        0.77832520253802
C            9.58822706999826        0.67332966269326        0.50381070842233
C            8.31747826077497        0.15386097076074        0.16032001555464
C            8.24736895088886       -1.04087656818717       -0.59328954686770
C            7.03578660131772       -1.57233117612349       -0.93183047476772
C            5.84890381296574       -0.92994618239172       -0.52902803877820
N            4.65274964739519       -1.49643830066780       -0.80467644850828
C            3.57890288047432       -0.86427597126246       -0.42637064961789
C            2.23552910393788       -1.44801968881969       -0.58076056791629
C            1.50435351999529       -1.73477403946860        0.57048040551389
C            0.17170763695499       -2.07250865840453        0.48843586330975
C           -0.46797360961679       -2.09625361577406       -0.74907475801554
N           -1.86572380417961       -2.26971628091293       -0.81960660805732
C           -2.67872524595758       -1.20594099217147       -1.23455697620728
C           -2.16086542612380       -0.04098908668482       -1.78405813412935
C           -2.99287866190638        0.99392623772821       -2.18394739061376
C           -4.36066976641896        0.88289512257010       -2.04376908581572
C           -4.89362761275636       -0.26569635423035       -1.48012034123273
C           -4.06682638186297       -1.29567415418153       -1.07060868734786
O           -4.67398248023714       -2.37948855516236       -0.49113512561025
C           -3.86383061989880       -3.38891291900281       -0.03843592238018
C           -4.48160566040475       -4.46355009907390        0.57398183840917
C           -3.73216684995571       -5.54236839576363        1.01935062478788
C           -2.36513349245618       -5.54618327969368        0.82899779095775
C           -1.74031834807844       -4.46832742069660        0.22050367135376
C           -2.47262544947334       -3.36423485755451       -0.19727260780843
C            0.28315601399090       -1.90449077040406       -1.90504158713086
C            1.62749955097155       -1.58985026515063       -1.82148119003697
C            3.65202321317061        0.43392329832039        0.19829116864779
C            2.37508635504777        1.13720358849648        0.41019234134162
C            1.83672185965377        1.33051871302474        1.67583782571365
C            0.53134912307976        1.76562414526733        1.81705782395826
C           -0.24901426459585        2.02649700665036        0.69443948904023
N           -1.62111060058870        2.32489618379722        0.82547322258880
C           -2.50727847717679        1.33853726455043        1.27979976575694
C           -2.07265895508526        0.13114614112754        1.80954420768478
C           -2.97590389269478       -0.82483793579962        2.24941947828472
C           -4.33299723505723       -0.59089653845624        2.16983199173352
C           -4.78481753865274        0.60155093472031        1.62671225376897
C           -3.88763258095517        1.55309384283046        1.17758403447732
O           -4.41998317921113        2.68764917288609        0.62221007029842
C           -3.54321286203085        3.61976650200889        0.12955373375667
C           -4.08854227193517        4.74549331397374       -0.45941107694555
C           -3.26574679845143        5.75219797427251       -0.94254175322086
C           -1.89679328159511        5.63283726136505       -0.81327921343858
C           -1.34493612376688        4.50329400867401       -0.22841743852559
C           -2.15417485038601        3.46979190857544        0.22632611863805
C            0.33162892863341        1.94762400989130       -0.56959614483973
C            1.62375989957192        1.49165203441631       -0.70867336485995
N            4.79400553916425        0.96275062645307        0.52964287572704
C            5.92038714303964        0.28638919540755        0.20416953264705
C            7.17267726606816        0.81348241707987        0.55539748849709
H            9.16670448297299       -1.52373768275803       -0.88987789606206
H            6.95479706465284       -2.48716890335275       -1.49756074632092
H            1.98427566365334       -1.67404236507896        1.53648645805659
H           -0.39155045168246       -2.28806301425428        1.38312186118664
H           -1.09324398843624        0.06285937758096       -1.88936278554025
H           -2.56193765177487        1.88995781385579       -2.60636216638155
H           -5.01235862419619        1.68386212657901       -2.35433288253059
H           -5.95594681277961       -0.37988041147255       -1.33738683319349
H           -5.55361082921346       -4.43930882425461        0.68720917442152
H           -4.22282968342125       -6.37496855047751        1.49818124296313
H           -1.77131375240297       -6.38877084680331        1.14836251185142
H           -0.67316389356542       -4.48800500140625        0.06139812875733
H           -0.19701952671957       -1.98307352356490       -2.86906376132001
H            2.20143705564841       -1.41796009678777       -2.71971622491254
H            2.43123348855240        1.10572984414490        2.54863780187786
H            0.10269350747689        1.88582357126887        2.80086036677155
H           -1.01512880058549       -0.06864915973874        1.86781337795218
H           -2.60899640497421       -1.75628062723851        2.65542162338935
H           -5.03975654416354       -1.32999957840822        2.51177700542634
H           -5.83782487508303        0.81122380932662        1.53105328263552
H           -5.16237724974178        4.81800400968478       -0.52451620190079
H           -3.70043832812348        6.62544372082484       -1.40268981586450
H           -1.24436793108203        6.41829223860610       -1.16249180981626
H           -0.27431052267800        4.42705162310961       -0.11694770316726
H           -0.24808781096839        2.21473419378485       -1.43952561021858
H            2.05402292150307        1.39032896635620       -1.69448811015345
H            7.21488065985768        1.73203956269650        1.12028401496397
