  79
       -132.84900995
 N         10.4078852744        0.1066794731        0.2425045327
 C          9.3264940279       -0.2694913048        0.1419155944
 C          8.0056558618       -0.7356261266        0.0182971788
 C          7.7666384209       -2.0788222306       -0.2857236843
 C          6.4771010655       -2.5485601064       -0.4000278785
 C          5.3804151747       -1.6964862206       -0.2156038918
 N          4.1289417184       -2.1323945009       -0.2682678544
 C          3.0944744269       -1.3111109788       -0.0892212430
 C          1.7476179008       -1.8618484778       -0.0602347887
 C          0.7974584740       -1.3952847448        0.8558390133
 C         -0.5007371976       -1.8490684990        0.8073177835
 C         -0.8782374689       -2.7873462462       -0.1504273252
 N         -2.2386972510       -3.1717600939       -0.2451206406
 C         -3.1826035707       -2.2421078261       -0.6675501959
 C         -2.8213066634       -0.9842586351       -1.1389705546
 C         -3.7874063716       -0.0777751033       -1.5417066379
 C         -5.1270998327       -0.4122742250       -1.4863980873
 C         -5.5028008575       -1.6725243371       -1.0479506200
 C         -4.5430947290       -2.5866848753       -0.6512809620
 O         -4.9770545164       -3.8246339076       -0.2577802839
 C         -4.0287534915       -4.7465311911        0.1048068616
 C         -4.4748193688       -6.0050547130        0.4656573292
 C         -3.5713137743       -6.9746141017        0.8727306244
 C         -2.2231293993       -6.6742780119        0.9296631943
 C         -1.7684230060       -5.4175559861        0.5664692382
 C         -2.6589025093       -4.4413473679        0.1332890811
 C          0.0758210880       -3.3163572225       -1.0139704497
 C          1.3779530027       -2.8639490257       -0.9611696171
 C          3.3355262004        0.0740513927        0.0703513447
 C          2.2326179559        1.0363703003        0.0760960161
 C          2.1968565177        2.0632570203        1.0180767989
 C          1.1171015645        2.9221709016        1.0783308493
 C          0.0634241506        2.7756642897        0.1827523034
 N         -1.0840647028        3.6001995396        0.2704496734
 C         -2.3091919508        3.0362781534        0.6133785651
 C         -2.4244583643        1.7122722522        1.0232835448
 C         -3.6599008700        1.1800451470        1.3517236634
 C         -4.7982787132        1.9600630548        1.2818806011
 C         -4.6970634427        3.2901846934        0.9049229042
 C         -3.4650779017        3.8312297745        0.5834122526
 O         -3.4292388114        5.1590452650        0.2497258786
 C         -2.2062602879        5.7121203525       -0.0308922036
 C         -2.1772290524        7.0628362468       -0.3275829286
 C         -0.9789623639        7.6802704257       -0.6510496251
 C          0.1854981848        6.9366117716       -0.6900374615
 C          0.1646403022        5.5842642167       -0.3915724462
 C         -1.0245868607        4.9550457732       -0.0406991165
 C          0.1248671010        1.7956457040       -0.8046925729
 C          1.2002252875        0.9372169099       -0.8598575882
 N          4.5720290587        0.5230923610        0.1749699967
 C          5.6273521716       -0.3006199210        0.0722510477
 C          6.9315784297        0.1491787088        0.1928620362
 H          8.6032673449       -2.7474571430       -0.4249416036
 H          6.2804876913       -3.5863933607       -0.6189353246
 H          1.0868211255       -0.6803686075        1.6112156266
 H         -1.2377749228       -1.4814271818        1.5064382843
 H         -1.7769491512       -0.7195012801       -1.1874688874
 H         -3.4868567064        0.8947095864       -1.8992840646
 H         -5.8806244038        0.2963673093       -1.7904852462
 H         -6.5385252329       -1.9696579354       -1.0106113990
 H         -5.5338199679       -6.2035179036        0.4269184017
 H         -3.9268779605       -7.9538828288        1.1510174725
 H         -1.5137565769       -7.4167591376        1.2603613617
 H         -0.7166772666       -5.1857467514        0.6244321058
 H         -0.2158434629       -4.0638590833       -1.7371386251
 H          2.1202611506       -3.2549232205       -1.6397052142
 H          3.0116076354        2.1610276470        1.7188110301
 H          1.0752059946        3.6969075368        1.8297309986
 H         -1.5390469417        1.0994848598        1.0830381428
 H         -3.7284004117        0.1485620363        1.6610871013
 H         -5.7621450692        1.5437137352        1.5269105348
 H         -5.5638891178        3.9293893136        0.8577295978
 H         -3.1052045452        7.6112609006       -0.3055698539
 H         -0.9643112490        8.7341268986       -0.8790111438
 H          1.1209418172        7.4033112844       -0.9563529796
 H          1.0755677864        5.0087990485       -0.4374871472
 H         -0.6792933056        1.7151655972       -1.5213565849
 H          1.2489546186        0.1863313868       -1.6341240719
 H          7.1095427621        1.1910436664        0.4094343191
