79
 energy: -132.900433173261 gnorm: 0.000060598813 xtb: 6.7.1 (edcfbbe)
N            5.72331816687482        8.84498132941624       -0.44730142439113
C            4.84620015921493        8.12076803669075       -0.30610961490693
C            3.75631953601792        7.23597016000015       -0.13113287387604
C            2.49628168556618        7.76651532470219        0.23473041621378
C            1.42124835363084        6.94144123136275        0.39925253216637
C            1.56519477671841        5.55330653393492        0.20264312764361
N            0.49040965517547        4.74582098811590        0.27198525731062
C            0.65761643312803        3.45764668417484        0.10095969911905
C           -0.54194245129290        2.61850355178248        0.06374014070166
C           -0.65861931035186        1.55846712840948       -0.83662998993457
C           -1.76376107722539        0.73623200453804       -0.80236410783586
C           -2.77624629264307        0.95705872999649        0.12954285699929
N           -3.86813021860482        0.07010621325402        0.19636472161506
C           -3.65950929392019       -1.26450400093185        0.55520229339071
C           -2.41801906123088       -1.73648605433610        0.96227101870373
C           -2.24507188827917       -3.06595842147326        1.31623816162202
C           -3.31031760637673       -3.94186978004376        1.27488537053514
C           -4.56401284595903       -3.47835234684063        0.90393594927732
C           -4.74361352977269       -2.15194152485616        0.55784656572156
O           -6.01849441649145       -1.75606078860794        0.23912575973318
C           -6.21742979114523       -0.42763704267022       -0.04616288445359
C           -7.51359957075450       -0.03256321072825       -0.31925744789715
C           -7.78853001541903        1.28559573408818       -0.65272500416337
C           -6.75605192550945        2.19812707500101       -0.72688848195782
C           -5.45432204007093        1.80833846308170       -0.45022586510219
C           -5.16723153486691        0.49948899166430       -0.08499238929944
C           -2.68973391256596        2.04668241720752        0.99211427961542
C           -1.58562693641092        2.87306684509039        0.95152738814446
C            1.97660758913119        2.90205579638880       -0.04909644575317
C            2.21166249568125        1.45615877390703       -0.02700836680145
C            3.12189572150212        0.89430483447732       -0.91997584526753
C            3.29937181779471       -0.47306221147196       -0.97343730950536
C            2.57825396720673       -1.30271341419241       -0.11901374450291
N            2.70333017976802       -2.70349181282615       -0.19898593057812
C            1.60250462042205       -3.47973389401621       -0.57099083714831
C            0.40208366534011       -2.91355170524687       -0.98102827609609
C           -0.67065077520491       -3.71188648893765       -1.34808161611353
C           -0.55835426501512       -5.08664933455520       -1.31682406424750
C            0.64467850816056       -5.66719723905316       -0.94255345491278
C            1.71985134745986       -4.87579995736594       -0.58343286372528
O            2.88924100351234       -5.51798882375826       -0.26140238259294
C            3.98026962282501       -4.73813295941048        0.03489160934037
C            5.16483997090115       -5.39561840621967        0.30888314477278
C            6.30102926328011       -4.67773390574880        0.65265432441530
C            6.23726864134227       -3.30180138552787        0.73572022688596
C            5.05254359443564       -2.63660134433315        0.45823539244783
C            3.91467274191126       -3.33913226647952        0.08350155581380
C            1.71355803882341       -0.74002204368367        0.81782001295838
C            1.53255773173939        0.62522581045433        0.86505847175695
N            3.01545228827652        3.68241398761544       -0.20851786003186
C            2.84133663803338        5.01665067358042       -0.12661455531780
C            3.93308804217330        5.88026179208482       -0.30969860080364
H            2.40274515188745        8.83335450224602        0.37440981603378
H            0.44814149148908        7.32328265005992        0.66548510458326
H            0.11042032435494        1.39043831181349       -1.57589752730886
H           -1.85321688815920       -0.08823975302208       -1.49416307120686
H           -1.57977460581098       -1.05864893421971        1.00500526231142
H           -1.26930230100752       -3.41004510000178        1.62166872313605
H           -3.17787944030687       -4.97883122363474        1.53897314542128
H           -5.42150052946586       -4.13171025888384        0.88238567715291
H           -8.29409250507038       -0.77502494215029       -0.27293510907677
H           -8.80319468662286        1.58473599639362       -0.86253963163516
H           -6.95112708179284        3.22248279592129       -1.00454346345461
H           -4.65398106631782        2.52714877836906       -0.53017855624973
H           -3.48181970850966        2.22627803183201        1.70375597009704
H           -1.50088690442890        3.70998645795173        1.62735747348394
H            3.66352774657314        1.54492944543383       -1.58906514759944
H            3.98105084125308       -0.90883106799656       -1.68861139129810
H            0.30588714844842       -1.83951815957565       -1.01565826720470
H           -1.59497408817264       -3.24839638734701       -1.65579102142889
H           -1.39337181474408       -5.71121858504737       -1.59115570466470
H            0.77206373202266       -6.73780593047211       -0.92834802127764
H            5.17538254980134       -6.47245365377775        0.25506235494746
H            7.22112101307067       -5.19945380052377        0.86311031665918
H            7.10732311545834       -2.73071531077685        1.02082758735010
H            5.01124615899433       -1.56215383347002        0.54475925452140
H            1.18409392122083       -1.38567719677638        1.50278090607281
H            0.87491481014173        1.05238050243578        1.60757578441199
H            4.89378511873028        5.46500791748913       -0.57294950346435
