100
 energy: -154.498685133821 gnorm: 0.000093328746 xtb: 6.7.1 (edcfbbe)
C           -7.98383330140979        2.20816532842762       -2.44139398807197
C           -6.84637214655839        2.39449947499372       -1.48243704625952
C           -6.77927988201286        3.50022168970432       -0.64555332328910
C           -5.71636453737232        3.65710761997307        0.22577913174881
C           -4.69019209001307        2.72656498922538        0.30270075618264
C           -3.57614894481525        2.90692305836554        1.28890871548908
C           -4.74846599290431        1.61789853679792       -0.54937181375087
N           -3.74002782479126        0.62914905813946       -0.50995862346089
C           -2.40912613725602        1.01508862120626       -0.72320201108660
C           -2.14044311983042        2.00718332323678       -1.66447521309307
C           -0.84852311760840        2.39721868757915       -1.93723688834957
C            0.23084055534665        1.80780348413691       -1.27492552279373
C            1.57741192984729        2.14662069474322       -1.57826654670374
C            2.61459884381493        1.58745337422534       -0.91140283076477
C            2.40354332281158        0.64611653645324        0.13744539088143
C            3.45868075588673        0.06367746091662        0.86988668873066
N            4.79652200036469        0.42567833965595        0.67458806362766
C            5.21415013354953        1.76616447895104        0.55055474231891
C            6.14484508784833        2.07889240220196       -0.44095147899618
C            6.60687819703739        3.37025443534137       -0.62604110153663
C            7.62194451262097        3.67814081558202       -1.68490906272043
C            6.11184252375360        4.36951692954557        0.20450546230783
C            5.19796206393411        4.06516743019882        1.19477636155575
C            4.73769471144554        2.77039717337013        1.40135798355166
C            3.77916196986443        2.49313061150506        2.51990265983662
C            5.75742105969941       -0.58304569367613        0.62982648836178
C            7.04601626199725       -0.40433657832101        1.13362400859497
C            8.00466311551697       -1.40777043842840        1.07488384042222
C            7.72578760755582       -2.64392340367776        0.52531052865240
C            6.44669283755253       -2.85654643049571        0.02210306253729
C            5.48395738256260       -1.83413457932088        0.06965888526641
O            4.29851351747282       -2.22965306567432       -0.48620470864474
C            4.48136231853382       -3.51559112934854       -0.89339001990041
C            3.53964184778190       -4.32470442564639       -1.50438487490867
C            3.93024687510575       -5.61041740040453       -1.83488513103315
C            5.21663962729846       -6.07201074508122       -1.56471029790422
C            6.15513914894746       -5.26251983412560       -0.95459907589981
C            5.78547315302274       -3.96776484525510       -0.61289454386938
C            3.17854195726970       -0.91767767910740        1.82359343410201
C            1.88902190731500       -1.30510044153895        2.09625034210198
C            0.81198914601952       -0.72022997332923        1.42501091505715
C           -0.53392987492263       -1.05976326856527        1.72862405044512
C           -1.57018078866793       -0.50348302603261        1.05795835107485
C           -1.35165170731434        0.43660115739870        0.01046184322928
C           -0.01894743721502        0.83028399277437       -0.27929985012610
C            1.06859944852690        0.25429055515493        0.42951977023997
C           -4.11739458567706       -0.70704348957470       -0.58247444056576
C           -3.36599270739726       -1.66630672014952       -1.26277172358001
C           -3.74783626608395       -3.00085996806876       -1.31213245339017
C           -4.90557668952367       -3.44655505743409       -0.70571906157862
C           -5.68439326732011       -2.51196493950136       -0.03090805862315
C           -5.28524169260681       -1.16681135138480        0.03394601034558
O           -6.16972478822008       -0.41124691081379        0.75456793659210
C           -7.15615320325730       -1.25957835717515        1.15254430633243
C           -8.27229041338917       -0.92729270344014        1.90003052044743
C           -9.15989945705829       -1.94605781838270        2.19801199331230
C           -8.94040529758948       -3.25179189075898        1.76439858688985
C           -7.82601284737983       -3.58119613886617        1.01745744381264
C           -6.92082214535655       -2.57461403480191        0.70565108070908
C           -5.81571061422172        1.46897937961209       -1.42883288199156
H           -8.84046731720629        2.80977679466519       -2.14750161092112
H           -7.68218162400701        2.51141912329193       -3.44483899519462
H           -8.28384712686200        1.16263496217049       -2.48385757820732
H           -7.56669136825204        4.23988804612694       -0.66871348986107
H           -5.68962017116183        4.51843908955831        0.87863708104986
H           -3.30808348300045        1.95673746475397        1.74686888554403
H           -2.68555761109511        3.30438801042051        0.80050172822092
H           -3.87454837950802        3.60158645485516        2.07068248708901
H           -2.96716176522074        2.45665057645695       -2.19619509185753
H           -0.66001444484289        3.15460291898742       -2.68443677349221
H            1.75822009321521        2.86070239388159       -2.36930132054139
H            3.62394744187728        1.85090028768899       -1.18221424927543
H            6.50216656960743        1.28452716745392       -1.08220215746801
H            8.62433433714157        3.65861088231124       -1.25531285622177
H            7.45553200125152        4.66858190408334       -2.10289759868631
H            7.58382629959102        2.94328279998534       -2.48569905020293
H            6.44907142715044        5.38801616644968        0.07863344231170
H            4.83578519699738        4.85286371796610        1.84030606299057
H            2.75677431587985        2.41941345378448        2.14740405009131
H            4.02096956155042        1.55718357075405        3.01958815353340
H            3.81616827487934        3.29871304350631        3.24986038559045
H            7.29670194766602        0.54671037357903        1.57880512647019
H            8.98620523962543       -1.21147905902184        1.47976064948554
H            8.47057649332156       -3.42241009366880        0.48450933834766
H            2.54547808766311       -3.95824337243374       -1.70664966872439
H            3.22099635319207       -6.27027687517773       -2.31172744922300
H            5.48151250602038       -7.08234142100081       -1.83896094866656
H            7.15088678434706       -5.62226295634880       -0.74529212141266
H            3.99989041199077       -1.36107075196905        2.37023880810479
H            1.69795981583905       -2.05618841051380        2.84936476309064
H           -0.71407711909501       -1.77175484341719        2.52178979105618
H           -2.58352121561022       -0.76267758991710        1.32441152252032
H           -2.46054942932726       -1.35461315384819       -1.76124302838410
H           -3.12286358699452       -3.69800319285088       -1.85022119996046
H           -5.20232070247898       -4.48211631127881       -0.75088539016961
H           -8.43338316294204        0.08744752228249        2.22829171534119
H          -10.04242166088809       -1.72320917547964        2.77886238832095
H           -9.65746733081561       -4.01824749226783        2.01855994724220
H           -7.65830495509055       -4.59317164750820        0.68170698658217
H           -5.83876664693822        0.60579732063785       -2.08114251639011
