100
 energy: -154.500248025066 gnorm: 0.000067730285 xtb: 6.7.1 (edcfbbe)
C           -6.38785654527644        4.10823936581214        2.73308521787184
C           -5.47105734767074        3.99905453802162        1.55238805580262
C           -4.96657850157539        5.13067262948575        0.92280262027727
C           -4.14765624765320        5.00704863887790       -0.18341319702796
C           -3.79785180748465        3.76922544373039       -0.70825808686902
C           -2.94152964156559        3.70050541553778       -1.93666545601486
C           -4.28537982874772        2.62603703302950       -0.06304301182599
N           -3.98064777049890        1.32712017362155       -0.51803198217885
C           -2.69226192184108        0.94580419556512       -0.91304596700374
C           -2.56114714120132        0.20171008907193       -2.08738391164308
C           -1.33022817171300       -0.19543165363499       -2.55105173501803
C           -0.16520988264134        0.14205400510335       -1.85787793986258
C            1.12382045772002       -0.20833062110922       -2.34292582438471
C            2.24543129690002        0.09760609714790       -1.64915360544257
C            2.17730267134698        0.77379012000495       -0.39724795969785
C            3.32005049181740        1.05579686386481        0.37910385820136
N            4.57958098737603        0.53886888947632        0.04425798417327
C            5.68983109116420        1.40862946062493        0.10213107687632
C            5.60042881599303        2.61850144658571       -0.58354804603948
C            6.64071293011379        3.53122209845631       -0.57977243189308
C            6.53620023684435        4.83320901417365       -1.31474371493844
C            7.79484959751506        3.20824397515784        0.12694897117683
C            7.88082948907902        2.01930443895674        0.82467409366338
C            6.83633410189733        1.10243561421667        0.84232338142425
C            6.95095014007999       -0.14872266480689        1.65933409710714
C            4.73887981986682       -0.79979974963216       -0.27588835857872
C            5.79494528977233       -1.24505171129405       -1.07317988085413
C            5.96046398549154       -2.58657237035151       -1.39445289508482
C            5.07774011145119       -3.55156691254110       -0.95205166270786
C            4.01026898486466       -3.13911667155938       -0.16040122691955
C            3.85572209940429       -1.78546651504521        0.17821698555858
O            2.76164213103871       -1.58663951898782        0.97690043602514
C            2.19196357905269       -2.80875562433164        1.15077990464926
C            1.05161751465985       -3.08448179868373        1.88459958342400
C            0.64043079572297       -4.40452407861453        1.94094852182444
C            1.34175681400700       -5.41287172574415        1.28323789899832
C            2.47796476064876       -5.13440821401761        0.54846911060567
C            2.91176709815289       -3.81650012694113        0.47972757475448
C            3.20892933717202        1.85201504624547        1.51741230355889
C            1.98159384384610        2.29275332552478        1.95604093076217
C            0.81227659704585        1.94506660511797        1.27445923400779
C           -0.47631714324685        2.30012191514521        1.75733505674035
C           -1.60127646434946        1.97169542098503        1.07875554855600
C           -1.54401108714877        1.27807899014039       -0.16472138716071
C           -0.26992941553526        0.87660485101609       -0.65108555243014
C            0.90761095270550        1.19905722652904        0.07385936599061
C           -5.00811136380301        0.39074742134805       -0.61503340947086
C           -6.31881504961908        0.75768617689980       -0.92277682445971
C           -7.34563086827735       -0.17397618767432       -1.00352901221005
C           -7.11790399065714       -1.52079624893456       -0.79913178256652
C           -5.81894602393362       -1.92092903010013       -0.50480102093215
C           -4.78544951438372       -0.97377824234823       -0.40606764542625
O           -3.58877666304041       -1.56281545116902       -0.10093462780567
C           -3.83487114445518       -2.89880567760508       -0.01167917975559
C           -2.90615271081906       -3.88871764486190        0.25796027315907
C           -3.36767545684458       -5.19271074651441        0.29724113927251
C           -4.70889166905491       -5.49781699274398        0.07604116148912
C           -5.63327916644298       -4.50819921461226       -0.19638997407176
C           -5.19296999384782       -3.19157915692923       -0.24344433534227
C           -5.11596317168830        2.75878962553018        1.04990669866781
H           -6.23908401664852        5.05134364491862        3.25346107046372
H           -7.42613841306075        4.06319838834719        2.40173278424666
H           -6.22318404948561        3.28826296131626        3.42880927446222
H           -5.22075878506857        6.11199463555040        1.29596374309160
H           -3.77585783246223        5.89892092057529       -0.66782372697000
H           -1.90418874033240        3.48678781903367       -1.67622208409171
H           -3.28481168044141        2.91777548075378       -2.61010704615743
H           -2.96967382176177        4.65179546260366       -2.46339151104517
H           -3.45243162171720       -0.04645348307792       -2.64817064123556
H           -1.25478260325653       -0.76025784807817       -3.46931643308376
H            1.18994982276046       -0.72199870681322       -3.29196963332006
H            3.21260809015895       -0.15939439946818       -2.05461629276611
H            4.69136954233301        2.83458586021029       -1.12774698774671
H            5.61757526058517        4.88069071237938       -1.89387723986819
H            7.38342487857725        4.96016446884094       -1.98718651117286
H            6.54443162121828        5.66392065333108       -0.60923149237111
H            8.62472343380196        3.89978689994298        0.13885335228721
H            8.77670756763317        1.79681752978468        1.38710921063191
H            7.65444465832351        0.00077552677681        2.47549082898503
H            5.98582341076705       -0.43374394805798        2.07436365403020
H            7.30741651060459       -0.97986190516993        1.04927697650378
H            6.49320655768092       -0.51460866100346       -1.45436543059178
H            6.79812826757158       -2.87101820162088       -2.01406042202649
H            5.20522898324300       -4.59098849657520       -1.20827527651436
H            0.51293690149250       -2.29456414125327        2.38474858204640
H           -0.24344324065338       -4.65696092118272        2.50768429604546
H            0.98809206817303       -6.43086922604891        1.35243459690143
H            3.01892010185107       -5.91760610200094        0.03971449561843
H            4.10388551232951        2.09325351639045        2.07345682341691
H            1.91110723873758        2.88676039841123        2.85596791318329
H           -0.54115693429997        2.83183018657889        2.69632976877120
H           -2.56353611020659        2.23403499066994        1.48735821142717
H           -6.53214816976756        1.80090074214009       -1.10068883535381
H           -8.34064010227032        0.17067796637843       -1.24243890209044
H           -7.91525372369098       -2.24332870726650       -0.86716075494862
H           -1.86854731195819       -3.64448515453851        0.42278766062984
H           -2.67115694499971       -5.99192155794032        0.50057494023917
H           -5.02779332599309       -6.52875062080143        0.11624688612435
H           -6.67125339271010       -4.74604761485771       -0.37171291020891
H           -5.48422758754468        1.86232432194969        1.53007749833053
