100
 energy: -154.435932307396 gnorm: 0.000078063160 xtb: 6.7.1 (edcfbbe)
C           -6.42419708620709        4.06446499882991        2.73704621376763
C           -5.50347722309247        3.96447457077742        1.55902209816173
C           -5.00670611429356        5.10180725221792        0.93229666962862
C           -4.18275130881183        4.98851764806838       -0.17173152145705
C           -3.81591416274353        3.75589010402987       -0.69654612637732
C           -2.95201529255773        3.69949007897757       -1.91952946540692
C           -4.29987265687006        2.60697955937660       -0.05632168993489
N           -3.98846624609733        1.31279161206977       -0.51581395778482
C           -2.71146253042145        0.93934611595158       -0.91932261678372
C           -2.58226921184164        0.15895747510448       -2.07581820310323
C           -1.36279170929181       -0.23329875046487       -2.54683965641664
C           -0.16787143173092        0.12835395689647       -1.85847494675528
C            1.09069762716602       -0.22209402880326       -2.34312826514610
C            2.24366609547994        0.10276096893733       -1.64689806663139
C            2.18030275017697        0.77410986302076       -0.42373247915970
C            3.35040314592367        1.08958482592804        0.35311844272272
N            4.59572690984574        0.55394255406567        0.04243781876243
C            5.71924738779278        1.40393731522048        0.11571045166882
C            5.65177651932609        2.62113704990551       -0.56193441899043
C            6.70478611175457        3.51775537959535       -0.54425563369924
C            6.62593854693408        4.82490868902116       -1.27245387545385
C            7.84773722587073        3.17386582084235        0.17253315142618
C            7.91131166145108        1.97900390879372        0.86278860691584
C            6.85608364195297        1.07443756415658        0.86266356856697
C            6.94634753223164       -0.18316621087239        1.67246828547402
C            4.74779197109842       -0.78266659764196       -0.28806018485080
C            5.80007959955260       -1.22624600164469       -1.09537336421476
C            5.95540574597295       -2.56453517680721       -1.42849258457474
C            5.06975453088182       -3.52907674989043       -0.98592522236828
C            4.00884340000335       -3.11884927940424       -0.18314399476011
C            3.85862048865502       -1.76614385816555        0.16242716062253
O            2.77627114639225       -1.56851808929984        0.97103672285194
C            2.20491414079499       -2.78999466513757        1.14729481956149
C            1.07220452138462       -3.06574712022913        1.89255360557074
C            0.65859591035294       -4.38506133063087        1.94780663786629
C            1.35045636781116       -5.39252548796263        1.27809175491178
C            2.47917436197379       -5.11420009760280        0.53223468925227
C            2.91555856328773       -3.79673566914220        0.46427930924490
C            3.24306758521121        1.94615919201801        1.45456822143161
C            2.02769397579657        2.39130725249847        1.89200140652831
C            0.82607261712918        1.99855212924906        1.23068000242919
C           -0.43100228958926        2.35360769244858        1.71461582851254
C           -1.58870759189818        1.99612285508780        1.04110349035175
C           -1.53684133867112        1.30317771764755       -0.17095438335991
C           -0.26692110261477        0.88508720479166       -0.66140952508938
C            0.91445965870173        1.21534935852244        0.04985553411844
C           -5.01796240330238        0.38089526680247       -0.61822083166837
C           -6.32605973988546        0.75463290746795       -0.94448452797013
C           -7.35369351370692       -0.17256679171984       -1.03670011717622
C           -7.13410976050485       -1.52070162415400       -0.82253288039764
C           -5.84008183648333       -1.92698971011359       -0.50919682901098
C           -4.80166319852002       -0.98561396050592       -0.40533424972158
O           -3.61499698735616       -1.57700446750428       -0.08115880979090
C           -3.86802481002024       -2.91196095353794        0.01492616619130
C           -2.94733511494592       -3.90403951959336        0.30141695491397
C           -3.41554678176442       -5.20588809512703        0.34216482812835
C           -4.75584263100794       -5.50545164196475        0.10678750760339
C           -5.67239412166573       -4.51347651880736       -0.18209049833492
C           -5.22509614002282       -3.19878381926692       -0.23194948782803
C           -5.13803274034250        2.72898716280691        1.05329168351468
H           -6.27634389007642        5.00300656974851        3.26570976469597
H           -7.46110663599306        4.02360346904688        2.40115840953159
H           -6.26296233299959        3.23854717372669        3.42632617148144
H           -5.27036635510999        6.07991061785880        1.30698589013481
H           -3.81830841750172        5.88489540751897       -0.65295938909957
H           -1.91152262273298        3.51720893369350       -1.64889914289349
H           -3.26679118066553        2.90138504281615       -2.58865485709684
H           -3.00249200190392        4.64530383294884       -2.45434881300159
H           -3.47861731674230       -0.10076365341141       -2.62462632339133
H           -1.28309549625664       -0.80478531097609       -3.45962970448031
H            1.16479815846697       -0.76789120551550       -3.27338002115517
H            3.19936683300197       -0.17686461157305       -2.06470845692786
H            4.75036385998792        2.85084899956743       -1.11298489729065
H            5.70896300955024        4.89274077123088       -1.85202662908476
H            7.47616417288382        4.93915246817711       -1.94331401894008
H            6.64913987116621        5.65138840400289       -0.56247084423395
H            8.68631600696354        3.85424058522426        0.19788107158200
H            8.79841196287165        1.74146054721833        1.43253399292668
H            7.64907734779082       -0.04998198048217        2.49193837365038
H            5.97537591851701       -0.45457574312624        2.08289616305621
H            7.29219126963543       -1.01594596097094        1.05879465022242
H            6.49892826377990       -0.49530460853712       -1.47413478739331
H            6.78681058256771       -2.84989641072457       -2.05574429943056
H            5.19085567217883       -4.56696114159008       -1.25086094190169
H            0.54102834302056       -2.27618240152349        2.40107729517930
H           -0.21940271775545       -4.63797164141475        2.52333686632074
H            0.99453746587778       -6.40974387375035        1.34667642832471
H            3.01241388769115       -5.89661227448917        0.01432377599698
H            4.14384757468607        2.21192211623832        1.99090095400075
H            1.95439612036666        3.01536891493382        2.77007152715583
H           -0.50282507093522        2.92285557340811        2.63072646719929
H           -2.53901688599129        2.27644669652289        1.46534819387931
H           -6.53039152558487        1.79804229209913       -1.13060446351748
H           -8.34416149614903        0.17394634367482       -1.29081224146440
H           -7.93367216114476       -2.23975530030146       -0.89832879724412
H           -1.91060448011266       -3.66306068141014        0.47598554236545
H           -2.72531741590494       -6.00738394216729        0.55747577578144
H           -5.08000914672119       -6.53466877250761        0.14858954700203
H           -6.70923847192589       -4.74756091954561       -0.36850515717573
H           -5.49808597189263        1.82762303237581        1.53010003352843
