  62
        -94.75868976
 C         -5.6772247268       -3.5792163828        1.3068724837
 O         -4.6568708676       -3.8549957948        0.3802588058
 C         -3.5676061570       -3.0341771062        0.3477737402
 C         -3.3776419594       -1.9248821556        1.1645818347
 C         -2.2325743587       -1.1603009456        1.0377113620
 C         -1.2515963084       -1.4759385698        0.1032357996
 C         -0.0194236769       -0.6815932611       -0.0092826193
 C         -0.0192638619        0.6720017374        0.0021997244
 C         -1.2505856276        1.4681688465       -0.1059447196
 C         -1.4335228463        2.5987086932        0.6922560055
 C         -2.5710510636        3.3658350142        0.5820566714
 C         -3.5608416966        3.0363000068       -0.3452226004
 O         -4.6452036769        3.8634500862       -0.3771589977
 C         -5.6674065322        3.5941524526       -1.3037809526
 C         -3.3801753658        1.9224834640       -1.1579476115
 C         -2.2379975341        1.1530697968       -1.0338069436
 C          1.2231187799        1.4516487965        0.1215536681
 C          1.4398593010        2.5705588610       -0.6837684983
 C          2.5963224412        3.3088825238       -0.5710512110
 C          3.5706143099        2.9611507198        0.3659254512
 O          4.6795640396        3.7554803034        0.3948765089
 C          5.6934731727        3.4569779987        1.3214639680
 C          3.3531436487        1.8624975481        1.1899911806
 C          2.1925425395        1.1218407296        1.0628272454
 C          1.2228416185       -1.4608729584       -0.1301812605
 C          2.1934075063       -1.1283179596       -1.0693884599
 C          3.3572193818       -1.8645589968       -1.1928139308
 C          3.5768563000       -2.9615762275       -0.3671670378
 O          4.6902145206       -3.7498277679       -0.3904803272
 C          5.7144361914       -3.4359933844       -1.3008456569
 C          2.5999425345       -3.3141735541        0.5653168755
 C          1.4404180986       -2.5801477073        0.6744690669
 C         -1.4427036426       -2.6031335412       -0.6975840826
 C         -2.5833289946       -3.3654212436       -0.5847664756
 H         -5.3106573278       -3.6309639894        2.3375168489
 H         -6.4305958884       -4.3508826082        1.1550099658
 H         -6.1266856998       -2.5961054494        1.1311813149
 H         -4.1102254740       -1.6475448244        1.9064373412
 H         -2.0936253776       -0.3079852846        1.6860298793
 H         -0.6748699963        2.8661935205        1.4135232523
 H         -2.7200381170        4.2353847454        1.2028944398
 H         -6.4133666133        4.3734680740       -1.1551200811
 H         -6.1265648154        2.6161489575       -1.1251561682
 H         -5.2994229036        3.6392489752       -2.3342038884
 H         -4.1181178899        1.6449529154       -1.8944788919
 H         -2.1068175800        0.2972752568       -1.6792078090
 H          0.6941945848        2.8502606961       -1.4139459823
 H          2.7734649993        4.1679349300       -1.1989796939
 H          6.1142986193        2.4602545500        1.1516458333
 H          6.4683483742        4.2054449073        1.1627724500
 H          5.3308999193        3.5263532104        2.3524662771
 H          4.0762392036        1.5741760451        1.9369384807
 H          2.0330913939        0.2764605995        1.7154233322
 H          2.0327065675       -0.2839691240       -1.7230368031
 H          4.0813190914       -1.5738636902       -1.9378479346
 H          6.1195341823       -2.4343889128       -1.1218479962
 H          6.4961838276       -4.1751753396       -1.1322434565
 H          5.3686368409       -3.5069798261       -2.3375189116
 H          2.7781227604       -4.1727981626        1.1935637846
 H          0.6933948634       -2.8626847764        1.4021330923
 H         -0.6881027227       -2.8718198859       -1.4226825896
 H         -2.7393363141       -4.2321798769       -1.2077337147
