62
 energy: -94.758721347792 gnorm: 0.000035336976 xtb: 6.7.1 (edcfbbe)
C           -5.68383412377798       -3.54423471721859        1.28031786152608
O           -4.66349774150672       -3.82024665483344        0.35374861808986
C           -3.56734900166128       -3.00824939519861        0.33140488444300
C           -3.36998884898545       -1.90856845919581        1.15925059934435
C           -2.21925891543195       -1.15112068536178        1.04067816095139
C           -1.23973968691565       -1.46500219675651        0.10427622043290
C           -0.00365605409753       -0.67500500983860       -0.00299805279065
C           -0.00416657585381        0.67852923866011        0.00693024029816
C           -1.24072600211481        1.46753155244622       -0.10230671498822
C           -1.43981074604172        2.58751201676200        0.70652527427247
C           -2.58626088673174        3.34191108775880        0.59974818712790
C           -3.56853257025304        3.00987994537922       -0.33464715986137
O           -4.66462102754978        3.82186599492794       -0.35998298287222
C           -5.68473852148359        3.54279341658396       -1.28588211152158
C           -3.37020544179822        1.90851999427935       -1.16002178764417
C           -2.21935111722739        1.15165526856690       -1.03900137899341
C            1.23350187806562        1.46472178265059        0.12524578167802
C            1.43452791641368        2.59317896113921       -0.67114648900524
C            2.58500537253709        3.34086252867639       -0.56020855319529
C            3.56972242361871        2.99288965099521        0.36574149627772
O            4.67134609129759        3.79727656030973        0.39375999701804
C            5.69670986731532        3.49849543678580        1.30762360719291
C            3.36843293893212        1.88429461847632        1.18064765503404
C            2.21324836934910        1.13474269126699        1.05589316961705
C            1.23457943419849       -1.46055831379935       -0.12010383867330
C            2.21355533677463       -1.13194628683979       -1.05201403699445
C            3.36895969650858       -1.88130432197330       -1.17605076364379
C            3.57138007554939       -2.98796880551693       -0.35879982344824
O            4.67330489255098       -3.79199038515260       -0.38590067179198
C            5.69669838458830       -3.49642054473179       -1.30300827245910
C            2.58760858421600       -3.33427945223641        0.56877875981452
C            1.43669589388818       -2.58710346861375        0.67867482869104
C           -1.43759634033741       -2.58363098675258       -0.70670649548174
C           -2.58406063729520       -3.33837335884959       -0.60259726499718
H           -5.32104286647487       -3.61155971170717        2.31136419128357
H           -6.44474011644539       -4.30612481733931        1.11740831383206
H           -6.12241953153245       -2.55456467260899        1.11452110711013
H           -4.10119673590209       -1.63294578820159        1.90309419707456
H           -2.07486434851074       -0.30609775723989        1.69731220887669
H           -0.68749981705076        2.85587297703038        1.43410220404484
H           -2.74891756449438        4.20234734302812        1.22974192070063
H           -6.44592953919409        4.30489206223966       -1.12530247302245
H           -6.12296412662273        2.55345169773394       -1.11718277679419
H           -5.32190511661621        3.60720278131554       -2.31709903340893
H           -4.10066868345584        1.63120584618043       -1.90396812331277
H           -2.07415206829236        0.30556300822896       -1.69406460175604
H            0.68088302997137        2.87316542626214       -1.39293791348392
H            2.74947952255459        4.20750417945207       -1.18115546217486
H            6.12535383619455        2.50779652377757        1.12293705066439
H            6.46277271392053        4.25634770918192        1.15016562119626
H            5.34302258205207        3.55290595569878        2.34257561504233
H            4.10020697061572        1.59523711816228        1.91880644580241
H            2.06611653434975        0.28253505824617        1.70252917119547
H            2.06557958179838       -0.28100789142745       -1.70014994083565
H            4.10003430227380       -1.59360470322900       -1.91543432892292
H            6.12599432603460       -2.50521752242999       -1.12260477105165
H            6.46295145612153       -4.25391653695298       -1.14474765195305
H            5.34063763267123       -3.55419660020574       -2.33696714447974
H            2.75312566185283       -4.19928742580643        1.19172546014192
H            0.68363933810913       -2.86582774216597        1.40157490065146
H           -0.68440634702307       -2.85047072111574       -1.43393749234405
H           -2.74600896496814       -4.19756811863872       -1.23446463700591
