  62
        -94.69349823
 C         -5.2195505971       -2.6924266078        3.2762233759
 O         -4.4199784666       -3.3158228887        2.3028078796
 C         -3.3557280345       -2.6302012347        1.7970055445
 C         -2.9764654621       -1.3419096039        2.1710580375
 C         -1.8828823384       -0.7453735311        1.5862029191
 C         -1.1014863752       -1.4054386101        0.6177089123
 C          0.0024748598       -0.7420007599        0.0059083928
 C          0.0036474679        0.7342263702       -0.0017879321
 C         -1.0991155128        1.4001983243       -0.6124220257
 C         -1.5053443914        2.7005571081       -0.2398204722
 C         -2.5974710849        3.2970556997       -0.8147012338
 C         -3.3437917211        2.6369088364       -1.7977818805
 O         -4.3999233402        3.3299993461       -2.3103793571
 C         -5.1908492484        2.7166421631       -3.2971648620
 C         -2.9748744056        1.3436717854       -2.1652146240
 C         -1.8864250816        0.7411340855       -1.5771094584
 C          1.1057883588        1.4076932875        0.6008523947
 C          1.5084966642        2.7057015827        0.2161281691
 C          2.6003544038        3.3095769207        0.7835993603
 C          3.3497881491        2.6599363318        1.7712307252
 O          4.4045422870        3.3603952015        2.2765565628
 C          5.1972206997        2.7584866043        3.2690015617
 C          2.9844924591        1.3690461622        2.1506538119
 C          1.8964790247        0.7588010267        1.5698604775
 C          1.1018464431       -1.4162034433       -0.6002663796
 C          1.8947587715       -0.7643576375       -1.5657407847
 C          2.9832873703       -1.3730074805       -2.1470601568
 C          3.3462551086       -2.6661503313       -1.7730850281
 O          4.4029609301       -3.3642289985       -2.2776094854
 C          5.2095256124       -2.7511982504       -3.2517868848
 C          2.5927890615       -3.3202881931       -0.7913771877
 C          1.5013988047       -2.7173162027       -0.2220835383
 C         -1.5162493552       -2.7017668783        0.2407564026
 C         -2.6126981680       -3.2926195108        0.8131127040
 H         -4.6454783829       -2.4559388878        4.1781885701
 H         -5.9981279548       -3.4120245996        3.5250408058
 H         -5.6826074288       -1.7777513671        2.8915157598
 H         -3.5305581317       -0.7970256172        2.9197108798
 H         -1.5977538242        0.2492441453        1.8952289827
 H         -0.9765270131        3.2137257559        0.5489937059
 H         -2.9121472181        4.2853106828       -0.5162980069
 H         -5.9570903860        3.4452012126       -3.5574455556
 H         -5.6703606791        1.8069587610       -2.9210966929
 H         -4.6049735839        2.4744869889       -4.1899169478
 H         -3.5332235166        0.7996213680       -2.9113709338
 H         -1.6081440046       -0.2563484940       -1.8827777777
 H          0.9793069295        3.2092299947       -0.5785448060
 H          2.9137435602        4.2947873487        0.4740319059
 H          5.6781657847        1.8457534113        2.9019847587
 H          5.9624202070        3.4911680117        3.5214288889
 H          4.6120845706        2.5245132321        4.1645405029
 H          3.5454099799        0.8328114851        2.9006202302
 H          1.6224682035       -0.2377224250        1.8827847046
 H          1.6224857356        0.2337007449       -1.8750375466
 H          3.5466442310       -0.8336056505       -2.8928225983
 H          5.6831293085       -1.8418438804       -2.8679906799
 H          5.9795189879       -3.4799535173       -3.5002419527
 H          4.6379479700       -2.5084990056       -4.1534551954
 H          2.9024303993       -4.3085894167       -0.4882526050
 H          0.9695702959       -3.2246715305        0.5683263268
 H         -0.9918344565       -3.2150236240       -0.5507149580
 H         -2.9364354871       -4.2759539619        0.5086626232
