61
 energy: -95.549314753409 gnorm: 0.000039762128 xtb: 6.7.1 (edcfbbe)
C            1.37934637870012        0.74530051093080        2.91135055223668
C            0.27125583482387        0.20771313762794        2.28183180344019
C            0.39863125840941       -0.41787712642181        1.04320193477022
C           -0.77531488287977       -0.98858878755287        0.36225680929300
C           -0.69996745597546       -2.22447182664278       -0.27680680042966
C           -1.80909463762536       -2.75527921388413       -0.91001838822318
C           -3.00486903984873       -2.05989944908743       -0.93199604961299
C           -3.09130709937532       -0.82420475410105       -0.29810206353522
N           -4.30004298545853       -0.10484160557933       -0.31619505130084
C           -4.45431267309618        1.21599944530447       -0.69636536181800
C           -3.50773806361289        2.11231897108718       -1.17437374303277
C           -3.93533695867560        3.38223830078472       -1.51077149633286
C           -5.27207746842977        3.76087464260282       -1.38697410731437
C           -6.22244180700362        2.87001865439018       -0.93191198026453
C           -5.81499150750618        1.58630129282594       -0.58731581171324
C           -6.51080752711061        0.42473664501960       -0.11284358271008
N           -7.79674012634076        0.25659717359559        0.16537427549122
C           -8.15105554689517       -0.93598624048135        0.60907475058147
C           -7.26578024617202       -1.99456224850966        0.81142449438102
C           -5.91952207381763       -1.83614183403705        0.52748269206539
C           -5.53380520373087       -0.59788180045132        0.03615306376590
C           -1.98299938715023       -0.29829095015568        0.35351165192963
C            1.65362607358711       -0.48599336838258        0.44763131800307
C            2.76616949042528        0.05718291938636        1.07917821544856
N            4.02510385652771       -0.01485576267856        0.46196720649612
C            4.88063605405217        1.04642764011977        0.24309385056156
C            4.70833927305623        2.39418318677585        0.52661662473080
C            5.72496369155901        3.26265877454828        0.17759339692960
C            6.88560101383933        2.81069150664052       -0.44781456088821
C            7.05300842447084        1.47457925832569       -0.75330714936260
C            6.04462675937510        0.58173421767733       -0.41258279270101
C            5.87523244145496       -0.83367487015364       -0.58981511584924
C            6.66735511160045       -1.83050937513428       -1.14564998100818
C            6.20032319689485       -3.12991940282652       -1.13663236243613
C            4.96744184784104       -3.44436651838342       -0.56783458906445
C            4.16188607614241       -2.47051967153396       -0.00929063017516
C            4.61417521054038       -1.15866979706928       -0.03814093679170
C            2.62786756008845        0.67215828188545        2.32025645844401
H            1.27219366281777        1.21852232163739        3.87627739537546
H           -0.69498616817761        0.25384086376302        2.76121783070468
H            0.22598423279036       -2.77881984718794       -0.26218224234521
H           -1.74138924367810       -3.71574957475242       -1.39903888065270
H           -3.86503979411408       -2.45949505570815       -1.44774750436395
H           -2.47334665195305        1.82641208149568       -1.28978788234634
H           -3.21696307869410        4.09782780634231       -1.88314397073011
H           -5.56332417313888        4.76439478920970       -1.65946010698820
H           -7.26198119659545        3.14528451163467       -0.84442808380825
H           -9.20502848782453       -1.05334341566527        0.82498836411284
H           -7.63493292545221       -2.93344905335226        1.19443748184382
H           -5.21054969080983       -2.63503968529541        0.68965754757615
H           -2.06229381911172        0.65935173460475        0.84571810500667
H            1.76532329811664       -0.93404902849463       -0.52854195859994
H            3.80653675015162        2.75669034229187        0.99661812367893
H            5.61609117879381        4.31622413909598        0.39095977979967
H            7.65907125459554        3.52056472554590       -0.70240451367275
H            7.94617687838574        1.12709811154405       -1.25106300389967
H            7.63021736428771       -1.59036593605494       -1.57164822541620
H            6.79998906056162       -3.91896829643843       -1.56652624173054
H            4.63657236250581       -4.47291606852558       -0.56065759680066
H            3.21719986142655       -2.72555803504532        0.44675377011834
H            3.49709146244019        1.07636261291013        2.81674526916377
