61
 energy: -95.443983823630 gnorm: 0.000121136237 xtb: 6.7.1 (edcfbbe)
C            2.53662795161018       -3.59786952392148        1.37167042754924
C            1.24931806180358       -3.65250092372674        0.87588986238071
C            0.68586124966514       -2.54377840544833        0.23202595695301
C           -0.68423196205030       -2.57112129706888       -0.27674372040983
C           -1.22891330271643       -3.72505387894127       -0.86085223006127
C           -2.52463435760969       -3.72506311971146       -1.34041980003519
C           -3.31950702270071       -2.59582146542431       -1.24330837945811
C           -2.79553861623667       -1.44095600307036       -0.64832156596244
N           -3.57752577292758       -0.29009135127731       -0.52826808231993
C           -3.12007198509668        1.00541456181118       -0.75114414697993
C           -1.95641223632982        1.42933383726598       -1.35304039020760
C           -1.74148925253317        2.80880484195822       -1.47004374623263
C           -2.68942583781708        3.71684360386475       -1.01126524619610
C           -3.88070718948361        3.30149210906958       -0.43878318271847
C           -4.11189625410614        1.92500358303449       -0.30025012374874
C           -5.19550522935674        1.15470752841020        0.17106826541480
N           -6.37057463983949        1.51518482311563        0.71716586321439
C           -7.18195112412678        0.55872212584378        1.14497332789774
C           -6.87163539464102       -0.78631086506114        1.11911659976773
C           -5.67740935466026       -1.21417128713181        0.49336650196001
C           -4.84278762817097       -0.22958184293648        0.00758610974706
C           -1.48838387614898       -1.43732944475508       -0.17739306416532
C            1.46577459700736       -1.39580117391089        0.08110355907807
C            2.76170327337316       -1.34599666770852        0.57243676877262
N            3.52767926029499       -0.18327695819732        0.39822670351395
C            3.11031251795256        1.10450259520620        0.66620812464689
C            1.91268326170776        1.55323892058820        1.20835338685794
C            1.75503446241682        2.91462096069796        1.39251427086571
C            2.76604160702475        3.81336409128838        1.06028293459304
C            3.97353300149061        3.37105679246213        0.54920263364126
C            4.15271667518907        2.00964433563576        0.35233383299469
C            5.24963027849035        1.21485826430109       -0.13221049216087
C            6.51970600618693        1.52265242182777       -0.59740270763716
C            7.33799529370778        0.49045007641588       -1.02146673532700
C            6.89564647719182       -0.83019211519462       -1.00121805461574
C            5.63374761734970       -1.16120587602895       -0.54233137145124
C            4.81805346926017       -0.13286565480186       -0.08772563378739
C            3.30176391881094       -2.45051756482739        1.23445631621419
H            2.95112252325244       -4.45372824093600        1.88415757222728
H            0.65894905447661       -4.54584859797251        1.01102424597171
H           -0.61990822024808       -4.61056048812931       -0.95789221491995
H           -2.92342888245773       -4.61423753743760       -1.80662007724096
H           -4.31911256772778       -2.58565339860557       -1.64821627009369
H           -1.23291992993146        0.72807199006010       -1.74045963726554
H           -0.82952431442186        3.16428048478807       -1.92379480752717
H           -2.49009084398840        4.77509943997806       -1.10438271070577
H           -4.61926846820188        4.00942741968398       -0.09680427942151
H           -8.13849756682691        0.89948410554467        1.51985596128512
H           -7.57261930039400       -1.51068119599895        1.50015954777889
H           -5.46612834474380       -2.26546836232069        0.38781642198663
H           -1.11708413374362       -0.55477475464543        0.32106258572619
H            1.07606065622181       -0.54898348070291       -0.46324654585779
H            1.13226388021417        0.86409523999311        1.49167035375489
H            0.82852719253269        3.28736004107855        1.80366628694986
H            2.60506680213792        4.86981354831694        1.21578429222009
H            4.76250861549010        4.06806196851373        0.31043124416215
H            6.85827788663518        2.54712823025191       -0.63046956070622
H            8.33132535017389        0.70933962268118       -1.38432867918947
H            7.55000939152414       -1.61267475590616       -1.35589336093822
H            5.29261340609806       -2.18492009781021       -0.54997171148053
H            4.29573719927999       -2.39629568480926        1.65031459331925
