92
 energy: -138.906739497142 gnorm: 0.000084994896 xtb: 6.7.1 (edcfbbe)
C           -8.22906880043733       -7.39271881251994       -0.49456877581974
C           -6.84807745132717       -7.35283993556150       -0.39714246941215
C           -6.19067454261862       -6.13953583967626       -0.32153779809363
C           -6.90486356223580       -4.94259285712307       -0.33616054541421
C           -6.20857072739244       -3.65355351002639       -0.25232967340497
C           -5.00865156793454       -3.44070516272345       -0.93199996120407
C           -4.35490191939874       -2.23029862797618       -0.86083612150342
C           -4.87915581289290       -1.18723609514135       -0.09348673316557
N           -4.21371135857376        0.03493021061437       -0.01232634535644
C           -4.93075098606029        1.22731024901166        0.07577686373753
C           -4.44649572367814        2.29016870980761        0.84221756721603
C           -5.14984154914845        3.47207143534202        0.91896450119099
C           -6.36121569338955        3.63542831541910        0.24599131959003
C           -7.10914227955354        4.89495564728973        0.33373519885711
C           -8.49906567346075        4.89138785439811        0.43848189039220
C           -9.20211813585312        6.07827953710764        0.52212522846178
C           -8.53078678037194        7.28941886091862        0.49682866299364
C           -7.14994615693361        7.30559124412633        0.39081641755582
C           -6.44426416819547        6.11987109298091        0.31297252862269
C           -6.84114279389085        2.56863324773907       -0.51456404394011
C           -6.13970064228490        1.38642975598311       -0.60585739527203
C           -2.81503902710979        0.06640426662603       -0.01814408826127
C           -2.12786314167655        1.07385025083954       -0.70173547847745
C           -0.75405209860747        1.10403309214586       -0.70280680791282
C            0.00271448737566        0.13405738526656       -0.02614133176893
C            1.45207448187381        0.16973411829938       -0.02820952187020
C            2.15488680822578        1.38226761297894       -0.13601913088095
C            3.52398198755656        1.42555525628482       -0.13344967009994
C            4.29142801323485        0.24712704494129       -0.03331777684732
C            5.71951742168576        0.23058152776540       -0.03397540606893
C            6.53418832099195        1.36087412640038       -0.23442870738656
C            7.90700863861367        1.20061948270635       -0.21862841667924
C            8.85873736327493        2.27871697122478       -0.41286364725304
C            8.48698008346829        3.54937179887868       -0.86759012566866
C            9.43213920708268        4.54003440119820       -1.03577123275190
C           10.76885374386379        4.29538327759108       -0.75907459553398
C           11.15293108471434        3.03951589167483       -0.31324722463707
C           10.21474611640501        2.04472878018925       -0.14352800560071
N            8.42685424700433       -0.04033634626518        0.00588148694847
C            7.64014310741231       -1.08383323590546        0.19433697967165
C            8.24248110964207       -2.39445516045088        0.43649424830413
C            9.62393129860754       -2.55525477176903        0.36226829131309
C           10.19235938874431       -3.79252945964568        0.59539880162544
C            9.38949028338136       -4.87906256504822        0.90492925319121
C            8.01379494740901       -4.72540694910606        0.97964940944836
C            7.44084796342453       -3.49042555739185        0.74667045300322
N            6.33747122825411       -0.96753962239711        0.17013398035431
C            3.58342265211376       -0.97073641469730        0.07326546131380
C            2.21641317264113       -1.00584077902952        0.07986102028667
C           -0.70280023329141       -0.87203100360207        0.65318491387422
C           -2.07648896045650       -0.90776266004088        0.66005698832192
C           -6.07621479731204       -1.39613660725443        0.59578710854862
C           -6.72804192051759       -2.60676267081165        0.51009240121260
C           -8.29446647135633       -4.99549799308506       -0.43197197874947
C           -8.94923174449987       -6.20984105858820       -0.51325156835544
H           -8.74170387219139       -8.34119516552646       -0.55574771203927
H           -6.28134324900720       -8.27239950801727       -0.37791000061751
H           -5.11474248077766       -6.11660395172253       -0.22713810587833
H           -4.60028803293612       -4.22670457131268       -1.54966910149044
H           -3.43807789136531       -2.07458465988932       -1.41004548831490
H           -3.52079919503520        2.17213854075619        1.38591656155816
H           -4.77129479166411        4.27372173899135        1.53551780172834
H           -9.02780406606944        3.95001650971282        0.47726926631816
H          -10.27879608169012        6.05932554259834        0.60950597492078
H           -9.08118883821768        8.21638959478671        0.55944964514888
H           -6.62121446052403        8.24739385890313        0.36639608776749
H           -5.36888414127631        6.14040668654342        0.21188383968249
H           -7.76189387890495        2.68141198925937       -1.06751632041873
H           -6.51337649176349        0.57956153915118       -1.21921022142118
H           -2.68884487711690        1.81907236362247       -1.24749046426810
H           -0.24950621412774        1.87214777380017       -1.26861273405703
H            1.60337841732847        2.31023306159252       -0.18419047959812
H            4.01241261789417        2.38615178516819       -0.19479192819494
H            6.09230806561130        2.32959031705164       -0.39103105699235
H            7.45649413907310        3.76370565391887       -1.10651403421178
H            9.12630742374526        5.51425784316030       -1.39016656207852
H           11.50348873157103        5.07538306592725       -0.89324132156098
H           12.19276275431667        2.83878174062302       -0.09758679171046
H           10.50767935711431        1.06707073848939        0.20794589086327
H           10.23497338636467       -1.70001208257945        0.11706923212154
H           11.26421643762538       -3.91354531163202        0.53631896621773
H            9.83569162883497       -5.84569979884713        1.08797367355972
H            7.38912809943964       -5.57299202918692        1.22147048646032
H            6.37176070110083       -3.35402969427710        0.80431831422811
H            4.15481435462323       -1.88445475739450        0.13790264831553
H            1.71510861899452       -1.96153818449804        0.13227900374554
H           -0.15854894070996       -1.61530773647176        1.21530797543085
H           -2.59792205530523       -1.67913606075042        1.20867474946157
H           -6.47983027893279       -0.60480744824396        1.21040738564305
H           -7.63993995805267       -2.75708464920025        1.06874717785276
H           -8.86137155704368       -4.07641232206098       -0.46573904368483
H          -10.02633758535823       -6.23452227844687       -0.59370351963472
