92
 energy: -138.980159161247 gnorm: 0.000035893443 xtb: 6.7.1 (edcfbbe)
C           -8.44048665283228       -7.23038182927275       -0.52460990144128
C           -7.05704684059059       -7.23552904208148       -0.46265559058656
C           -6.35970837960064       -6.04477133613474       -0.38389962625490
C           -7.03488476927023       -4.82602503922959       -0.36146353155196
C           -6.29495747100861       -3.56052215277199       -0.27400814650231
C           -5.11217830836147       -3.37100921064773       -0.98715963282487
C           -4.41793830164753       -2.18222606371725       -0.91215190207523
C           -4.88055036184543       -1.14376197090344       -0.10378377778389
N           -4.17725604325750        0.06228836181997       -0.01902099481835
C           -4.87754356235141        1.26898749951675        0.08300726225325
C           -4.40114546021988        2.30178463720851        0.89067978877150
C           -5.09149714403301        3.49153505170829        0.98256494038286
C           -6.28393529768071        3.68772280508587        0.28751695584468
C           -7.01881245441081        4.95473570378394        0.39357854745870
C           -8.40972446112952        4.96629423596581        0.47661871807937
C           -9.09977856498089        6.15955522235918        0.57852349236421
C           -8.41372305321538        7.36240372471104        0.59505035189113
C           -7.03144402274073        7.36362301228451        0.51096692791312
C           -6.33941301287889        6.17120327463498        0.41320763667260
C           -6.75898200234227        2.64830153405249       -0.51083827151940
C           -6.06718512854017        1.46073980551561       -0.61969809768654
C           -2.78121648590691        0.06330662269658       -0.02828264776073
C           -2.07558200866222        1.09317090094149       -0.65254826461207
C           -0.69761646946355        1.09977925360443       -0.64715538331831
C            0.02568154231828        0.07531960122059       -0.03693075331413
C            1.49190624873744        0.08659298996719       -0.03427569604765
C            2.19398837316406        1.27683784301313        0.15362395558683
C            3.57326947048624        1.29489060681347        0.15749240682600
C            4.29684356640853        0.11865489942126       -0.02941293118246
C            5.76306490257037        0.09596036752434       -0.03362707803127
C            6.53652050684350        1.21649560241277       -0.33837877992017
C            7.92169568109677        1.06466774660317       -0.30568010326245
C            8.84721546075997        2.16848678333743       -0.59410713403434
C            8.49414943439640        3.22510054801087       -1.42973828567660
C            9.39085831011815        4.24838500295670       -1.67546091673518
C           10.64592001423877        4.23257585722668       -1.08982309007818
C           11.00788332650093        3.18060105262991       -0.26375832412843
C           10.11737520947681        2.15320918221783       -0.02069547217152
N            8.47398279454656       -0.10322279486755        0.01345450325841
C            7.66477987253481       -1.12368174619416        0.27397783983939
C            8.28529646543770       -2.40982697990640        0.60674850358914
C            9.66388867209820       -2.57398880270858        0.49121353945841
C           10.24621521510983       -3.78707416383875        0.80406466455847
C            9.46150313446383       -4.84525178442705        1.23482896768004
C            8.08952443866255       -4.68725379629062        1.35216563786020
C            7.50133721180314       -3.47680546259829        1.04004348916394
N            6.33860580981087       -1.06894676172951        0.25726712929766
C            3.59740333571604       -1.07494409706473       -0.20732921056029
C            2.21952464577236       -1.09058083304251       -0.21125001908347
C           -0.68491912603596       -0.95742591006579        0.57413961173814
C           -2.06298099784287       -0.96270781636852        0.58778880985035
C           -6.06011665544681       -1.32908878481137        0.61746642352845
C           -6.75595077513277       -2.51560732872663        0.52541505003409
C           -8.42699031449820       -4.83361164235444       -0.42254213388605
C           -9.12239650114739       -6.02521964498690       -0.50540819022893
H           -8.98464800700089       -8.16116455829873       -0.58751618542926
H           -6.51951863596000       -8.17279217683238       -0.47314123085191
H           -5.28138313389889       -6.05701295421720       -0.31769300514919
H           -4.74872701921817       -4.15607332606507       -1.63388060508870
H           -3.51294920877086       -2.04534957457863       -1.48603132982171
H           -3.48839608508520        2.15953630808936        1.45080323729979
H           -4.71723076919917        4.27196781343860        1.62873926765737
H           -8.95029837587123        4.03083092708003        0.48228278165787
H          -10.17803163157198        6.15197158717154        0.64799037148775
H           -8.95372415111544        8.29445978935929        0.67309104992941
H           -6.49073764406664        8.29909700899515        0.51913882502165
H           -5.26221720650358        6.18042030646223        0.32997993427271
H           -7.66759225471737        2.78540691472986       -1.07853609541059
H           -6.43999739441488        0.67191986028090       -1.25675380217495
H           -2.61936276494190        1.88484095890639       -1.14698386858800
H           -0.17083530086971        1.89570888268965       -1.15278595104303
H            1.64871895311201        2.19388386921577        0.32379591310435
H            4.08749419707380        2.22803406898122        0.33500204566234
H            6.08372704297140        2.16143840196850       -0.58634479879250
H            7.52665175586420        3.23844073995559       -1.90995005771441
H            9.11035489957271        5.06155018032996       -2.32920515713256
H           11.34167822034348        5.03626634946233       -1.28136664233026
H           11.98788483295817        3.16299868090013        0.19030200168708
H           10.38366506446932        1.32594872700118        0.61889892280200
H           10.25888957084117       -1.74090821903197        0.15083136452265
H           11.31551831955663       -3.91162771245023        0.71198132576577
H            9.91919806865179       -5.79301948239598        1.47908562047379
H            7.47900849380686       -5.51254530710734        1.68924023563842
H            6.43561221519527       -3.33518580221710        1.12934625901246
H            4.16108184784564       -1.98383826278221       -0.35029227630012
H            1.69474198700689       -2.02067128067293       -0.37383373504654
H           -0.14798183340037       -1.74877209643913        1.07600866920648
H           -2.59672875319613       -1.75917005206583        1.08538071877508
H           -6.42177879475915       -0.53620596529027        1.25590168077178
H           -7.65630509926395       -2.64749879561614        1.10731196009345
H           -8.96467595620826       -3.89646163768757       -0.42588567359786
H          -10.20160738617900       -6.01452787579731       -0.55762915699113
