  92
       -138.90189457
 C         -8.3157840425       -7.3198897533       -0.5301581409
 C         -6.9326261951       -7.3099962512       -0.4557165334
 C         -6.2490516716       -6.1125974817       -0.3635801384
 C         -6.9386915562       -4.9011934204       -0.3381956325
 C         -6.2173221075       -3.6277811281       -0.2413948936
 C         -5.0222480220       -3.4241972421       -0.9338215926
 C         -4.3515174557       -2.2235936662       -0.8598092479
 C         -4.8553016304       -1.1800502190       -0.0789487968
 N         -4.1841566907        0.0397273759       -0.0040342203
 C         -4.9097518285        1.2275643082        0.0767280394
 C         -4.4467050494        2.2941634322        0.8515014386
 C         -5.1691348971        3.4643256819        0.9279427993
 C         -6.3768413763        3.6135499722        0.2436483181
 C         -7.1506039174        4.8560358569        0.3375335483
 C         -8.5424278244        4.8215288926        0.4145956284
 C         -9.2723277518        5.9911705187        0.5058789934
 C         -8.6268798540        7.2166820166        0.5162675021
 C         -7.2448053605        7.2638869470        0.4383763786
 C         -6.5121516917        6.0952934552        0.3526743964
 C         -6.8309389670        2.5450169953       -0.5316737335
 C         -6.1124040562        1.3738351057       -0.6201813826
 C         -2.7905643335        0.0718708584       -0.0124328958
 C         -2.1001503120        1.1016757399       -0.6668333475
 C         -0.7297657547        1.1290629829       -0.6751964797
 C          0.0378241510        0.1353529660       -0.0320636448
 C          1.4773871806        0.1660787627       -0.0417700500
 C          2.1924074336        1.3714879949       -0.2121663577
 C          3.5586987566        1.4092439462       -0.2139315097
 C          4.3257439373        0.2331290151       -0.0567126191
 C          5.7520067880        0.2106801413       -0.0558555139
 C          6.5691014284        1.3369866021       -0.2949461197
 C          7.9398572648        1.1708598547       -0.2679714329
 C          8.8878866068        2.2554665238       -0.4913339507
 C          8.5286725510        3.4539781728       -1.1138946534
 C          9.4621324652        4.4534823343       -1.3016806869
 C         10.7707532513        4.2834671253       -0.8766944678
 C         11.1415800626        3.0954077432       -0.2654233572
 C         10.2146726408        2.0921754757       -0.0767965166
 N          8.4688033608       -0.0475283551        0.0002497284
 C          7.6685493389       -1.0793390640        0.2227071463
 C          8.2728895247       -2.3801062732        0.5149490238
 C          9.6538255237       -2.5435250122        0.4364545111
 C         10.2251235377       -3.7697719679        0.7162980599
 C          9.4258519840       -4.8429302037        1.0773903088
 C          8.0507402741       -4.6865909989        1.1567209912
 C          7.4749337306       -3.4626700966        0.8770203193
 N          6.3632211817       -0.9768048972        0.1919914078
 C          3.6104211408       -0.9773531849        0.1086558808
 C          2.2465323006       -1.0077855128        0.1211030871
 C         -0.6755256129       -0.8913665235        0.6218180029
 C         -2.0456205219       -0.9254213525        0.6325269443
 C         -6.0438676179       -1.3814492422        0.6281865370
 C         -6.7110604594       -2.5828864474        0.5417404475
 C         -8.3309653558       -4.9242381730       -0.4102802407
 C         -9.0118079877       -6.1226920644       -0.5084831203
 H         -8.8485624704       -8.2562176522       -0.6046589373
 H         -6.3848308432       -8.2411114959       -0.4685303575
 H         -5.1716096460       -6.1137303577       -0.2865188729
 H         -4.6334265942       -4.2089155582       -1.5653701570
 H         -3.4409323346       -2.0725500410       -1.4205383476
 H         -3.5258393445        2.1849602482        1.4051441296
 H         -4.8101980049        4.2672259611        1.5543658209
 H         -9.0517946782        3.8688539489        0.4262912263
 H        -10.3498047532        5.9475878826        0.5714655546
 H         -9.1983577263        8.1303495650        0.5849315417
 H         -6.7362027690        8.2169870016        0.4415832605
 H         -5.4358898163        6.1412752473        0.2722697048
 H         -7.7454833279        2.6484561897       -1.0964002505
 H         -6.4663569179        0.5647034229       -1.2421911835
 H         -2.6622095809        1.8614779330       -1.1911153652
 H         -0.2308742086        1.9115106235       -1.2254336414
 H          1.6479012630        2.3000281927       -0.3030850212
 H          4.0507080243        2.3638531152       -0.3235879170
 H          6.1317352850        2.3029915862       -0.4789690493
 H          7.5211526632        3.6004744885       -1.4731172991
 H          9.1694360796        5.3732690651       -1.7878373916
 H         11.4962958779        5.0694691642       -1.0256373922
 H         12.1608280758        2.9538644100        0.0646361882
 H         10.4935506396        1.1659605698        0.4018914870
 H         10.2609273344       -1.6982098418        0.1505485784
 H         11.2966881366       -3.8926919508        0.6535580123
 H          9.8742722270       -5.8010098306        1.2970323318
 H          7.4286236655       -5.5237052515        1.4388345011
 H          6.4063995610       -3.3239108549        0.9373600172
 H          4.1807486855       -1.8876127948        0.2143645673
 H          1.7459499759       -1.9599741609        0.2181505618
 H         -0.1340264432       -1.6501548950        1.1647495746
 H         -2.5658287392       -1.7094253032        1.1643379273
 H         -6.4280788647       -0.5903304446        1.2554106480
 H         -7.6155932765       -2.7280123382        1.1133956863
 H         -8.8796853208       -3.9935444010       -0.4126983190
 H        -10.0903856660       -6.1235801415       -0.5706608131
