92
 energy: -138.979781270058 gnorm: 0.000051545019 xtb: 6.7.1 (edcfbbe)
C           -8.38097948882275       -7.24524175758633        0.47717529895705
C           -8.22427122088849       -6.60190609920027       -0.73910420474478
C           -7.51119535892222       -5.42023778778239       -0.81426467697291
C           -6.93725113027280       -4.86285998444904        0.32654551465943
C           -6.17647664631705       -3.60857879207887        0.24611410689454
C           -6.61603831234154       -2.55495549523143       -0.55359581467159
C           -5.90331431357654       -1.37746372034238       -0.63510932687782
C           -4.71985236825490       -1.21645647629665        0.08541601125812
N           -3.99384860956661       -0.02318104756158        0.00233934871060
C           -4.67336287967554        1.19734877283841       -0.08374959709379
C           -4.18845978338271        2.22668503189582       -0.89050043897435
C           -4.86063181147755        3.42806457066418       -0.96901203748600
C           -6.03478624996535        3.64432143422246       -0.24966669050230
C           -6.74519262831145        4.92764366692754       -0.33265543002503
C           -7.29742790443099        5.50919099450677        0.80678944453152
C           -7.96256529757497        6.71834456632272        0.72920983226666
C           -8.09227768365776        7.36562887027876       -0.48815003929272
C           -7.54972781570843        6.79605317192695       -1.62788132497854
C           -6.87996032938298        5.58935078334341       -1.55140728860216
C           -6.51583992607211        2.61025416300894        0.55167320030167
C           -5.84988405306207        1.40581037000207        0.63579747667652
C           -2.59828169580006       -0.04877785090758        0.00435971431374
C           -1.90363451607914       -1.09202551131185       -0.61012379139586
C           -0.52573810942985       -1.11663698796772       -0.59904674234702
C            0.20824950641578       -0.09634462579112        0.00486360184047
C            1.67437258970064       -0.11924263745835        0.00381957753959
C            2.36982114401392       -1.30954212964867        0.21333113991700
C            3.74912571526424       -1.33546779838742        0.21286995754966
C            4.47898110047430       -0.16794273358180       -0.00277706010309
C            5.94527591384877       -0.15161635376923       -0.01464471066548
C            6.71490186296959       -1.28565285783850       -0.27632830783087
C            8.10058501456554       -1.13590099707522       -0.25687812050489
C            9.02198662945266       -2.25293957337066       -0.50492897634301
C           10.29425268034342       -2.21914545470881        0.06294168339549
C           11.18133333241791       -3.25734923999699       -0.14407678114603
C           10.81378971269890       -4.33897580686261       -0.92831976859734
C            9.55643035901944       -4.37395419365985       -1.50815527484020
C            8.66312023040188       -3.33979107287631       -1.29820000396676
N            8.65755258871672        0.04270929411282        0.01040472706167
C            7.85191280645538        1.07511899694858        0.23230792527439
C            8.47644980163336        2.37311265874374        0.50665379150011
C            9.85587492317675        2.52715591239969        0.38717241032632
C           10.44160428387951        3.75158397873593        0.64467143979716
C            9.65951104923116        4.83144531876592        1.02321797507849
C            8.28668001278393        4.68376602397075        1.14388181032609
C            7.69519443791519        3.46194197407182        0.88734242274158
N            6.52571572236828        1.02266941397207        0.22497095067946
C            3.78546171225044        1.02557799402637       -0.20419250196548
C            2.40787274673013        1.04963700669476       -0.20123113684374
C           -0.49089064564078        0.94768253524106        0.60975358876981
C           -1.86866122700904        0.96954536321663        0.62030837598647
C           -4.27615686671302       -2.26567789107416        0.89035545395582
C           -4.99509811621143       -3.43985921837044        0.96634848504860
C           -7.09953438439655       -5.52045140055026        1.54416826837327
C           -7.81712540142377       -6.69950109331169        1.61822817907791
H           -8.93986673626606       -8.16756528505815        0.53550696389863
H           -8.65821248838705       -7.02491035824134       -1.63369275452079
H           -7.37825111851239       -4.93266603479846       -1.76925650893541
H           -7.53669881482461       -2.65579901653150       -1.10931825670284
H           -6.25750602383478       -0.57153656227339       -1.26128613331040
H           -3.28081765770332        2.07527017705071       -1.45647892760317
H           -4.46161533607466        4.21820945721957       -1.58796206006875
H           -7.18482722485580        5.01821432151209        1.76264572414263
H           -8.37998171077170        7.15973656808716        1.62277173148935
H           -8.61361100930402        8.30956954131617       -0.54833697377570
H           -7.65118657870758        7.29427666702704       -2.58129211167943
H           -6.47403426557678        5.14240547688054       -2.44743363272383
H           -7.43205059759545        2.74822230119878        1.10676739018940
H           -6.23563429316123        0.61553813044829        1.26330146463765
H           -2.45515093524924       -1.87953012658108       -1.10260558261171
H           -0.00712923219569       -1.92288677713276       -1.09680244009918
H            1.81933314849149       -2.21955143041075        0.40364051392657
H            4.25803806131524       -2.26788697056481        0.40835249492115
H            6.25966355059310       -2.23946565961616       -0.48216481635253
H           10.56502687029519       -1.36883915886088        0.66957781107066
H           12.16308992654195       -3.22501739891801        0.30536147334500
H           11.50703856646366       -5.15094970306077       -1.09199943162730
H            9.27151271139150       -5.21063486124424       -2.12951369100264
H            7.69372706118042       -3.36887073207655       -1.77388679542708
H           10.44889713417073        1.67717643829054        0.08758057170255
H           11.51157581405430        3.86811490258872        0.54985946903652
H           10.11988198857913        5.78805688517048        1.22414293077941
H            7.67805379932895        5.52601899774738        1.43993994978522
H            6.62876416907891        3.32836140269480        0.98022089659691
H            4.35384871996444        1.92748332284928       -0.37045789341188
H            1.88726385805077        1.97901202014221       -0.38065655613500
H            0.05485556469837        1.73530158300805        1.10802922321006
H           -2.39336535202577        1.77513700809206        1.11275748476992
H           -3.36377532128091       -2.15090642156567        1.45734673703089
H           -4.62794059100223       -4.24614274115644        1.58425600982483
H           -6.67697740097181       -5.09134343307700        2.44122681608943
H           -7.93952835825387       -7.19456680797239        2.57082724350858
