  34
        -67.03435628
 O         -0.7985689160       -2.3356283570        0.1984703437
 C         -1.4494783397       -1.3048672228        0.0937407605
 C         -2.8898601038       -1.2510219219        0.0328420903
 C         -3.6229593996       -2.4611310085        0.0395459229
 C         -4.9956199088       -2.4288822793       -0.0108408133
 C         -5.6803659779       -1.2153967893       -0.0479504502
 C         -4.9859474349        0.0080738367       -0.0492873805
 C         -5.6404052187        1.2527969977       -0.0922255986
 C         -4.9185830267        2.4468894251       -0.0809953377
 C         -3.5462985419        2.4382258992       -0.0422181702
 C         -2.8507856299        1.2051473401       -0.0033429834
 C         -3.5627751964       -0.0141148206       -0.0079120286
 C         -1.4198871574        1.1990613006        0.0326731320
 O         -0.7084020181        2.2100544797        0.0285090610
 N         -0.7921436985       -0.0549157302        0.0583539619
 C          0.5744130643       -0.0632107470        0.0059825377
 N          1.2729915318       -1.1358291005       -0.1020569286
 C          2.6056525182       -0.9050553514       -0.0706339545
 C          3.6137851966       -1.8643575404       -0.1545233222
 C          4.9269862053       -1.4532557994       -0.1282922104
 C          5.2386494528       -0.0945665154       -0.0251258771
 Cl         6.8934422852        0.3821079190       -0.0014260015
 C          4.2539764475        0.8783167541        0.0514846881
 C          2.9347194664        0.4672009824        0.0409291001
 S          1.4740675965        1.4412636455        0.0821374750
 H         -3.0741837121       -3.3879663822        0.0765545699
 H         -5.5540013051       -3.3529540845       -0.0176813290
 H         -6.7593914258       -1.2026288921       -0.0688850872
 H         -6.7183904699        1.2730858967       -0.1422965631
 H         -5.4501194450        3.3862842626       -0.1068771929
 H         -2.9680001010        3.3477340161       -0.0379996630
 H          3.3479965534       -2.9062056124       -0.2274041245
 H          5.7267401584       -2.1745398895       -0.1847417084
 H          4.5082866115        1.9243032390        0.1097927121
