  34
        -67.11214706
 O         -0.7651889240       -2.2174085672       -0.1448644483
 C         -1.4165951582       -1.1937211819       -0.0857638044
 C         -2.8774613746       -1.1999497478        0.0306633363
 C         -3.5449612170       -2.4023258641        0.1552251003
 C         -4.9355778482       -2.4248482668        0.2911419128
 C         -5.6534258821       -1.2564305346        0.3002707922
 C         -5.0070397667       -0.0095839652        0.1685026497
 C         -5.7041386803        1.2165048979        0.1589639467
 C         -5.0332710287        2.4032817592        0.0117145148
 C         -3.6430921439        2.4200436834       -0.1321631181
 C         -2.9250147548        1.2407396129       -0.1184043891
 C         -3.5961097538        0.0118372516        0.0330506694
 C         -1.4631497965        1.2921223578       -0.2768643933
 O         -0.8697471031        2.3025156434       -0.5442748220
 N         -0.7878131642        0.0528646500       -0.1096030766
 C          0.6029106175        0.0717026223       -0.0541207311
 N          1.2813657850        1.1231352449        0.2085843023
 C          2.6190078765        0.8808538873        0.1960319538
 C          3.6168538919        1.8209858798        0.4412398946
 C          4.9343680668        1.4243944734        0.3923885271
 C          5.2600222919        0.0980886165        0.1034511076
 Cl         6.9254474460       -0.3592310672        0.0513085778
 C          4.2932544231       -0.8581603249       -0.1415830942
 C          2.9685771575       -0.4566387740       -0.0967451324
 S          1.5319727774       -1.4071091261       -0.3295552304
 H         -2.9736553004       -3.3181280353        0.1491008593
 H         -5.4410812950       -3.3733288588        0.3898356743
 H         -6.7283749879       -1.2745470695        0.4052723100
 H         -6.7790187534        1.2031110205        0.2656908120
 H         -5.5763505313        3.3359943102        0.0029594314
 H         -3.1097388414        3.3505719268       -0.2536787477
 H          3.3412746106        2.8389764508        0.6614140610
 H          5.7260255379        2.1332054199        0.5767064919
 H          4.5598735930       -1.8787173064       -0.3631494950
