34
 energy: -67.038728688742 gnorm: 0.000127028642 xtb: 6.7.1 (edcfbbe)
O           -0.72294561964575       -2.26403305439825       -0.01723176441316
C           -1.42356697425180       -1.24415999821577       -0.01939726476629
C           -2.85642898862938       -1.22944814420122       -0.01896342515327
C           -3.56920877006015       -2.45088894568191       -0.01637105339106
C           -4.94388525770500       -2.43970708069759       -0.01570768974890
C           -5.64827015493027       -1.23969172419332       -0.01732055667762
C           -4.97434723792056       -0.00380847634463       -0.01977875685776
C           -5.65410641473737        1.22863465449001       -0.02168407638900
C           -4.96030783669028        2.43390175617151       -0.02339996502653
C           -3.58465365895684        2.45153921490707       -0.02358712962573
C           -2.86692169422389        1.23640197478111       -0.02207541967944
C           -3.55073957342823        0.00210654730907       -0.02032846464704
C           -1.43351639304130        1.25817311215332       -0.02228898004610
O           -0.72508172880454        2.26754617483756       -0.02347683130428
N           -0.79823757766581        0.00881831487859       -0.02126600545698
C            0.56846206665350       -0.00671485160330       -0.02357622670457
N            1.24060244381185       -1.10011744436026       -0.02710635281729
C            2.58505505671883       -0.90804104024900       -0.02627736504160
C            3.57241758943216       -1.88768480274491       -0.02912763921700
C            4.89383680360851       -1.49817811095667       -0.02831115425713
C            5.22997002087923       -0.14318075284549       -0.02484967313466
Cl           6.89577908390616        0.30485402624792       -0.02386850267311
C            4.26418898203276        0.84788072176489       -0.02232670552485
C            2.93634202582977        0.45990807367526       -0.02267387571068
S            1.49524826575511        1.46885470664844       -0.02148224465540
H           -3.00690617849453       -3.37027474819960       -0.01514971912435
H           -5.48589501695339       -3.37354371707348       -0.01392835395827
H           -6.72755377540746       -1.24395063273308       -0.01647272547144
H           -6.73361040449473        1.22506227480918       -0.02195026614977
H           -5.50950789129880        3.36340706672520       -0.02456999985895
H           -3.02547701740725        3.37309088519967       -0.02484008427754
H            3.29019463529623       -2.92762523450738       -0.03158543058988
H            5.67976149107455       -2.23633038406199       -0.03017982570619
H            4.53481705127023        1.89137866803800       -0.02042855211949
