  68
       -103.02172526
 C         -7.3121196705        1.2401518346       -0.1485706356
 C         -6.4197691913       -0.0071583363       -0.0034290890
 C         -7.2906131422       -1.2697369234        0.1402439687
 C         -5.5748102473        0.1432118050        1.2442159400
 C         -6.1902936728        0.2798333343        2.4805711721
 C         -5.4631112566        0.4158717289        3.6489227376
 C         -4.0778540696        0.4143276144        3.5954581748
 C         -3.4392593308        0.2805114052        2.3838175862
 C         -4.1724847792        0.1465150123        1.1961760288
 N         -3.5019302262        0.0175647943       -0.0003741586
 C         -2.0763554073        0.0180330603        0.0021918989
 C         -1.3750802919        1.2245231100       -0.0731933979
 C         -0.0041762002        1.2251921240       -0.0708345748
 C          0.7180534726        0.0146688144        0.0059805685
 C          2.1355912554        0.0096774315        0.0063932592
 N          2.8225324673        1.1773027604       -0.0560148804
 C          4.1293395427        1.1433970388       -0.0510760328
 C          4.8737681265        2.3939010089       -0.1166156786
 C          4.2023235429        3.6164577336       -0.1741329095
 C          4.9153878013        4.7958382648       -0.2380107792
 C          6.3027704873        4.7741245396       -0.2453945616
 C          6.9756739439        3.5630711266       -0.1878755415
 C          6.2694786253        2.3789221830       -0.1236503769
 N          4.8300578920       -0.0068730347        0.0103494305
 C          4.1157119778       -1.1490150670        0.0648712623
 C          4.8416117888       -2.4103868089        0.1227588547
 C          4.1504087518       -3.6228189399        0.1590205903
 C          4.8437875657       -4.8142498541        0.2112827340
 C          6.2312325364       -4.8148074659        0.2285940152
 C          6.9236774993       -3.6140113918        0.1931500118
 C          6.2371683875       -2.4176936411        0.1403310877
 N          2.8087521365       -1.1655013310        0.0669963407
 C         -0.0076879243       -1.1939636931        0.0815643010
 C         -1.3782699453       -1.1901833952        0.0801234582
 C         -4.1677159281       -0.1215962923       -1.1984123859
 C         -3.4298306214       -0.2416125032       -2.3846678676
 C         -4.0634974113       -0.3848110294       -3.5978238680
 C         -5.4483927241       -0.4106229862       -3.6541351140
 C         -6.1802065148       -0.2886566589       -2.4871332538
 C         -5.5697766430       -0.1421696256       -1.2494217133
 H         -7.9520654373        1.3615454968        0.7207350214
 H         -6.6923089166        2.1293137658       -0.2463860739
 H         -7.9439750332        1.1635968849       -1.0287470328
 H         -7.9229153505       -1.4051586607       -0.7325347041
 H         -7.9291449763       -1.2017690783        1.0163477268
 H         -6.6559721711       -2.1475857899        0.2446212709
 H         -7.2679552592        0.2804435821        2.5409426428
 H         -5.9738336760        0.5206660345        4.5937409965
 H         -3.4963571660        0.5171970448        4.4988244561
 H         -2.3617382565        0.2772006520        2.3395208937
 H         -1.9295638722        2.1502538780       -0.1337525553
 H          0.5502323648        2.1485699480       -0.1296958261
 H          3.1231719865        3.6176868608       -0.1677983999
 H          4.3918803050        5.7400750499       -0.2830177104
 H          6.8576882265        5.6995397548       -0.2963831066
 H          8.0560290032        3.5462205581       -0.1936957081
 H          6.7778128239        1.4282633607       -0.0787823966
 H          3.0715801012       -3.6062304453        0.1445344520
 H          4.3048919178       -5.7504346154        0.2384872192
 H          6.7709169316       -5.7496868229        0.2699057736
 H          8.0041808283       -3.6147005035        0.2074130770
 H          6.7611351653       -1.4749373280        0.1120976154
 H          0.5443919265       -2.1185849544        0.1427996033
 H         -1.9351855196       -2.1145004048        0.1406543254
 H         -2.3526025237       -0.2196491604       -2.3380885323
 H         -3.4784852097       -0.4761147114       -4.5001785814
 H         -5.9553136624       -0.5235550637       -4.6000730430
 H         -7.2576011689       -0.3083339507       -2.5497615827
  68
       -103.02163640
 C         -7.2050450681        1.3910506560       -0.3106054895
 C         -6.4156294834        0.1000159662       -0.0206520911
 C         -7.3843937569       -1.0680383979        0.2398069269
 C         -5.5709593883        0.3173545992        1.2169625893
 C         -6.1852672992        0.6076157397        2.4270157724
 C         -5.4596590400        0.8020752833        3.5880358597
 C         -4.0778061972        0.6968360283        3.5550744613
 C         -3.4404155314        0.4139255986        2.3687914871
 C         -4.1707857570        0.2327194877        1.1854716099
 N         -3.5003196797       -0.0363742677        0.0117289156
 C         -2.0759279588       -0.0452069830        0.0176188079
 C         -1.3749177053        1.1643485371       -0.0042136425
 C         -0.0048872886        1.1662927338       -0.0025785658
 C          0.7195055930       -0.0456439412        0.0188758743
 C          2.1366469608       -0.0395310048        0.0152210392
 N          2.8070432027        1.1395657496       -0.0007515045
 C          4.1137368656        1.1264230722        0.0053471673
 C          4.8337911974        2.3932881410       -0.0048725334
 C          4.1355544374        3.6017828926       -0.0397235401
 C          4.8217580097        4.7984486532       -0.0519097391
 C          6.2090438026        4.8079737586       -0.0284916919
 C          6.9084729442        3.6110548953        0.0074947144
 C          6.2289851282        2.4094489303        0.0191931250
 N          4.8326980557       -0.0136032185        0.0162502410
 C          4.1341755580       -1.1677868467        0.0175018496
 C          4.8811887255       -2.4183402084        0.0092034386
 C          4.2117106044       -3.6429834118       -0.0226525484
 C          4.9266323407       -4.8228149559       -0.0356766997
 C          6.3141380590       -4.7995396377       -0.0159895627
 C          6.9849244200       -3.5865925340        0.0166411078
 C          6.2769162674       -2.4018473576        0.0289754944
 N          2.8275422264       -1.2056617396        0.0241738363
 C         -0.0047217545       -1.2573671142        0.0431912370
 C         -1.3756011265       -1.2547950997        0.0434210446
 C         -4.1675985502       -0.2654823459       -1.1725292686
 C         -3.4331325748       -0.5303067878       -2.3373921161
 C         -4.0693246834       -0.7744021963       -3.5330104018
 C         -5.4539681583       -0.7527728043       -3.5950107942
 C         -6.1822007458       -0.4746512561       -2.4527973100
 C         -5.5690850581       -0.2271065568       -1.2326455925
 H         -7.8368147313        1.2689659857       -1.1855797422
 H         -7.8360764951        1.6565191196        0.5327772136
 H         -6.5159538946        2.2122948037       -0.4965718179
 H         -6.8208812000       -1.9750447278        0.4487523110
 H         -8.0183636217       -1.2472008475       -0.6241063277
 H         -8.0227470512       -0.8569811032        1.0923776627
 H         -7.2610554177        0.6841035539        2.4722637997
 H         -5.9692072195        1.0281757377        4.5119201977
 H         -3.4975770086        0.8361343300        4.4545456745
 H         -2.3654360666        0.3283402267        2.3424268532
 H         -1.9305053230        2.0911695038       -0.0261055174
 H          0.5488703186        2.0916209706       -0.0230256704
 H          3.0569502743        3.5782945228       -0.0566201116
 H          4.2773875455        5.7313789148       -0.0774698361
 H          6.7431350332        5.7468991653       -0.0378131567
 H          7.9887789422        3.6189289098        0.0256778167
 H          6.7583779421        1.4695812577        0.0446434673
 H          3.1325317825       -3.6452191874       -0.0381333954
 H          4.4045548321       -5.7685719736       -0.0646055888
 H          6.8706521442       -5.7252844065       -0.0299154542
 H          8.0651677342       -3.5687128181        0.0303869980
 H          6.7839006329       -1.4496636980        0.0559182941
 H          0.5481812913       -2.1832485477        0.0656310837
 H         -1.9310441995       -2.1816950231        0.0656369933
 H         -2.3560151267       -0.5392166385       -2.2902862581
 H         -3.4857528298       -0.9778664293       -4.4180858929
 H         -5.9629193161       -0.9421411665       -4.5274710992
 H         -7.2590063002       -0.4484184878       -2.5216621927
  68
       -103.02155642
 C         -7.2813990407        1.2473701330       -0.3899114939
 C         -6.4187753361        0.0291034673       -0.0087085689
 C         -7.3187820464       -1.1637738142        0.3659244975
 C         -5.5704180682        0.3873812916        1.1930127279
 C         -6.1845982078        0.7598490931        2.3805667353
 C         -5.4575441220        1.0700929436        3.5150367504
 C         -4.0739719629        0.9944713868        3.4796417568
 C         -3.4368551937        0.6312385360        2.3151526573
 C         -4.1685151833        0.3407050763        1.1545020127
 N         -3.4991068766        0.0009337939       -0.0023074916
 C         -2.0757323853       -0.0035534624       -0.0006609371
 C         -1.3715155260        1.2044191271       -0.0288551012
 C         -0.0012863951        1.2037918020       -0.0226793977
 C          0.7205883183       -0.0095995807        0.0051361983
 C          2.1378028894       -0.0112190835        0.0068316295
 N          2.8181353121        1.1637421470        0.0271500555
 C          4.1249109881        1.1353875758        0.0294616856
 C          4.8595061552        2.3939917776        0.0795547082
 C          4.1774996436        3.6053106966        0.2040537098
 C          4.8786228563        4.7924060769        0.2588165942
 C          6.2645135604        4.7887428184        0.1889340964
 C          6.9476779256        3.5886154385        0.0643343197
 C          6.2532318951        2.3966991904        0.0108206607
 N          4.8330667519       -0.0089448878       -0.0122800671
 C          4.1244838585       -1.1581538338       -0.0328948641
 C          4.8581683039       -2.4146478383       -0.0775908404
 C          6.2539020262       -2.4123023802       -0.1045029697
 C          6.9487714657       -3.6039124140       -0.1506935510
 C          6.2649149773       -4.8101494260       -0.1700158203
 C          4.8775362548       -4.8194140294       -0.1431010688
 C          4.1756947939       -3.6327434339       -0.0976044429
 N          2.8177478642       -1.1820392631       -0.0124075863
 C         -0.0065124101       -1.2199119563        0.0295487113
 C         -1.3768529650       -1.2145680741        0.0301653335
 C         -4.1697370457       -0.3311296649       -1.1606281177
 C         -3.4388944383       -0.6398779606       -2.3170991492
 C         -4.0780143941       -0.9958938675       -3.4827369793
 C         -5.4626754748       -1.0450852700       -3.5237782347
 C         -6.1884429948       -0.7165471880       -2.3936225006
 C         -5.5721936523       -0.3521042642       -1.2046494581
 H         -7.9178048765        1.0196378485       -1.2402252443
 H         -7.9152487840        1.5477632569        0.4394816364
 H         -6.6409787021        2.0864175676       -0.6550082549
 H         -6.7046544977       -2.0214975533        0.6334525203
 H         -7.9567792490       -1.4444263901       -0.4670889534
 H         -7.9532514769       -0.9188275822        1.2128113849
 H         -7.2616458086        0.8094374905        2.4290908305
 H         -5.9670342889        1.3593795958        4.4212206075
 H         -3.4919766023        1.2169670347        4.3608869985
 H         -2.3610938974        0.5632931783        2.2910058821
 H         -1.9246630872        2.1325892574       -0.0579955938
 H          0.5541452312        2.1280746239       -0.0476712025
 H          3.0998952077        3.5918077230        0.2593671492
 H          4.3470164664        5.7278902486        0.3573753281
 H          6.8103385560        5.7198833912        0.2325671613
 H          8.0266054362        3.5861949035        0.0105599380
 H          6.7698930031        1.4542950284       -0.0863481335
 H          6.7710075902       -1.4654457397       -0.0885607486
 H          8.0290564592       -3.5969101222       -0.1719277712
 H          6.8111184619       -5.7414317453       -0.2059375052
 H          4.3454281954       -5.7597844021       -0.1579573123
 H          3.0968247926       -3.6241662593       -0.0767400598
 H          0.5445032208       -2.1468277461        0.0552743761
 H         -1.9340623235       -2.1403669287        0.0568722375
 H         -2.3620153851       -0.5918494034       -2.2889260317
 H         -3.4966900187       -1.2330466281       -4.3606244527
 H         -5.9738629066       -1.3277638455       -4.4311241869
 H         -7.2660749313       -0.7443078524       -2.4469710133
