  109
       -164.38152513
 C          6.5586517586        2.2291795867       -1.4541543382
 C          7.0538515903        1.0725090601       -0.6394038646
 C          8.4104192213        0.8125266036       -0.5334072520
 C          8.8786229727       -0.2665183231        0.2093303980
 N         10.2558235318       -0.5104637225        0.3009640082
 C         11.2187159818        0.4145838793        0.6507986320
 C         11.0725070459        1.7387673594        1.0386950853
 C         12.2139262174        2.4444910824        1.3673076420
 C         13.4740039860        1.8518990912        1.3223260737
 C         13.6235557762        0.5285387242        0.9591241249
 C         12.4910570407       -0.2016371284        0.6234588938
 C         12.2752061973       -1.5652629408        0.2285151036
 C         13.1239147278       -2.6418619668        0.0069052432
 C         12.5775184838       -3.8419916433       -0.4013094270
 C         11.2050094738       -3.9729572896       -0.6016035269
 C         10.3404116703       -2.9166932331       -0.3878620662
 C         10.8813355484       -1.7139120693        0.0433239508
 C          7.9726676871       -1.1009984597        0.8547588375
 C          6.6184673944       -0.8512848760        0.7451241422
 C          6.1489528840        0.2271378485        0.0073235461
 C          4.6903874409        0.4619155902       -0.1020695872
 C          3.9873124079       -0.0843203838       -1.1672738102
 C          2.6262904709        0.1147849585       -1.2969757477
 C          1.9514581482        0.8663394123       -0.3426151183
 N          0.5669956313        1.0757391275       -0.4587892568
 C         -0.0680623046        2.3032329122       -0.4349826137
 C          0.4739922981        3.5746765547       -0.3175410572
 C         -0.3943929944        4.6490473502       -0.3479664162
 C         -1.7681000927        4.4705409996       -0.4972132590
 C         -2.3107278678        3.2085560043       -0.6346618691
 C         -1.4574988266        2.1133270017       -0.6094232281
 C         -1.6604743108        0.6966782871       -0.7397215262
 C         -2.7878627886       -0.0865891552       -0.9175050237
 C         -2.6373793129       -1.4682100028       -0.9911550305
 C         -3.7816869082       -2.3728180610       -1.2238567055
 O         -3.6437937776       -3.4740233077       -1.7229236440
 C         -5.1295339646       -1.8782755912       -0.8272098028
 C         -6.2188985530       -2.1909546397       -1.6367606636
 C         -7.4864583389       -1.7562180518       -1.3051403277
 C         -7.6833226584       -1.0222769675       -0.1403252930
 N         -8.9827283660       -0.5588210206        0.1973461370
 C         -9.3122121656        0.7604830337       -0.0685046268
 C         -8.3661728779        1.6053141777       -0.6572510033
 C         -8.6633278114        2.9235275230       -0.9303162136
 C         -9.9158909534        3.4242624834       -0.6251303062
 C        -10.8580546854        2.5868902562       -0.0573601426
 C        -10.5864377092        1.2557055199        0.2273395585
 C        -11.6717811563        0.3845203602        0.8307767087
 C        -12.0942803517        0.9868881496        2.1831570793
 C        -12.8695176424        0.3524112924       -0.1360799114
 C        -11.1941701773       -1.0366742990        1.0619524834
 C        -12.0634834953       -1.9691805664        1.6110509297
 C        -11.6795569366       -3.2739125323        1.8596076053
 C        -10.3867152060       -3.6663477647        1.5641175103
 C         -9.5020555193       -2.7605580817        1.0178098287
 C         -9.8938098949       -1.4459572809        0.7495466854
 C         -6.6057470920       -0.7406634201        0.6928687891
 C         -5.3354274964       -1.1620390965        0.3497694779
 C         -1.3594663956       -2.0438566266       -0.8921536376
 C         -0.2283455444       -1.2829415732       -0.7071534630
 C         -0.3790337976        0.0982534908       -0.6439167473
 C          2.6504793111        1.4107157998        0.7290779632
 C          4.0166113998        1.2192831562        0.8596523218
 C          4.7630802147        1.7988974499        2.0227609040
 H          5.8569240364        2.8338456249       -0.8812596052
 H          7.3853808696        2.8572517762       -1.7764519309
 H          6.0315297772        1.8691423443       -2.3375495707
 H          9.1198091502        1.4443637318       -1.0479876970
 H         10.0984693741        2.2014459994        1.0939010950
 H         12.1270562710        3.4779017228        1.6695249391
 H         14.3420784908        2.4380756000        1.5850202801
 H         14.5982025728        0.0646796659        0.9393482757
 H         14.1890952985       -2.5358771444        0.1474556584
 H         13.2198459099       -4.6918681114       -0.5781237613
 H         10.8081891237       -4.9203139007       -0.9358294243
 H          9.2803071907       -3.0230337784       -0.5628573785
 H          8.3327373650       -1.9296924998        1.4451392093
 H          5.9095510738       -1.4989985550        1.2406792957
 H          4.5180586186       -0.6694950278       -1.9042071538
 H          2.0878093721       -0.2968323610       -2.1369878734
 H          1.5387183809        3.7212643971       -0.2171064708
 H          0.0008205030        5.6500236663       -0.2580507004
 H         -2.4129309632        5.3363369704       -0.5143013370
 H         -3.3736681940        3.0715696477       -0.7641032242
 H         -3.7581300140        0.3746630968       -1.0222454864
 H         -6.0506550049       -2.7665276155       -2.5346258117
 H         -8.3318671640       -1.9831445424       -1.9375316823
 H         -7.3904001387        1.2181986332       -0.9080545558
 H         -7.9159955449        3.5568910513       -1.3849591302
 H        -10.1609617240        4.4547291651       -0.8326108029
 H        -11.8346928363        2.9886157532        0.1668769919
 H        -12.4523769998        2.0053085302        2.0597942326
 H        -12.8871310714        0.4001818612        2.6387842548
 H        -11.2443599484        1.0016213308        2.8630694238
 H        -13.6761841384       -0.2546091743        0.2654157671
 H        -12.5629242955       -0.0718807717       -1.0904205855
 H        -13.2531360509        1.3533134593       -0.3135746331
 H        -13.0726992164       -1.6740805327        1.8560225731
 H        -12.3822371049       -3.9737623313        2.2855836532
 H        -10.0619490301       -4.6773258694        1.7598867320
 H         -8.4922118028       -3.0716808146        0.7981177298
 H         -6.7737649189       -0.1851427359        1.6037584998
 H         -4.5030611152       -0.9518360785        1.0052043730
 H         -1.2891117755       -3.1190760319       -0.9599881726
 H          0.7426901564       -1.7441395399       -0.6104904386
 H          2.1127560992        1.9776627193        1.4753210683
 H          4.1162999997        2.4453671536        2.6153205895
 H          5.6245586191        2.3755247592        1.6792471653
 H          5.1411078964        0.9987802356        2.6634200607
