  85
       -121.03501476
 C          3.4059825609        2.0914313164       -2.0603813628
 C          3.8501360976        0.8315097345       -1.3284808821
 C          3.5275378859       -0.4281292704       -2.1281111945
 C          3.9960811642       -1.6940595439       -1.4147438739
 C          3.7043738561       -2.9764567581       -2.1957732580
 C          2.2081722695       -3.3170218619       -2.2654651513
 N          1.6431258009       -3.5512398328       -0.9550824671
 C          0.9877094767       -2.5272984116       -0.2649481223
 C          0.3227773964       -1.4890043525       -0.9165341010
 C         -0.3051541345       -0.3455569403       -0.2140098666
 C         -0.3097033874       -0.4486871530        1.2813201016
 C         -0.9224477524        0.5407128782        2.0521603224
 C         -1.5604379038        1.7824837001        1.5339993695
 C         -2.6981435242        1.5660246912        0.5569891130
 C         -3.8250436071        0.7958838330        0.7193666195
 C         -4.7746543233        0.7504932776       -0.3058342940
 C         -5.9836444994       -0.0696964501       -0.1527626425
 C         -7.2255185358        0.4035406521       -0.5716634091
 C         -8.3614943581       -0.3688506631       -0.4190047546
 C         -8.2766494211       -1.6289423634        0.1493999428
 C         -7.0470947497       -2.1111359787        0.5663322976
 C         -5.9107126400       -1.3384345610        0.4195470736
 C         -4.5618451103        1.4905664693       -1.4702320178
 C         -3.4270827897        2.2625983587       -1.6391024982
 C         -2.4861316108        2.3014430197       -0.6212090100
 C         -1.2135295968        2.9862977526       -0.5157743523
 C         -0.5386559522        3.8144966433       -1.4000873913
 C          0.6947333083        4.3200145049       -1.0325176430
 C          1.2726655773        4.0123332725        0.2008728576
 C          2.5897150067        4.5527626517        0.5620120654
 C          3.5215100131        3.7616580387        1.2326623144
 C          4.7662445171        4.2636470512        1.5614860107
 C          5.1009601998        5.5671947581        1.2343165491
 C          4.1812492304        6.3651602069        0.5743211429
 C          2.9381668401        5.8628925256        0.2384587131
 C          0.5875683286        3.1783820805        1.0893013693
 C         -0.6406805700        2.6773998100        0.7289361243
 C          0.2901584610       -1.5381954260        1.8763470439
 C          0.9360873526       -2.5643449688        1.1277644546
 O          1.4771247930       -3.5811198174        1.8669062487
 C          1.9886931184       -4.6465085985        1.1825222911
 C          2.4162558774       -5.7263155200        1.9360266038
 C          2.9525157274       -6.8453349508        1.3149555531
 C          3.0481773790       -6.8735723889       -0.0594843156
 C          2.6215491864       -5.7896663921       -0.8187089438
 C          2.0890275096       -4.6547959364       -0.2192482991
 H          3.8834925495        2.1531847801       -3.0361719345
 H          2.3273420582        2.0897038881       -2.2049966234
 H          3.6717330584        2.9783447269       -1.4905821742
 H          3.3473991233        0.7783444827       -0.3600795770
 H          4.9255316681        0.8804581147       -1.1425392440
 H          4.0083707679       -0.3676140230       -3.1078507318
 H          2.4486354214       -0.4663342658       -2.2850622432
 H          5.0745437416       -1.6262975966       -1.2524184996
 H          3.5233301751       -1.7491916867       -0.4316304443
 H          4.0824188916       -2.8776856321       -3.2154627528
 H          4.2309357049       -3.8070662364       -1.7203344766
 H          2.0582868910       -4.2032567367       -2.8877108700
 H          1.6737758320       -2.4989948504       -2.7398555421
 H          0.2062942927       -1.4929354026       -1.9872648437
 H         -1.3366494264       -0.2190968558       -0.5744524785
 H          0.2050760417        0.5903836496       -0.4996173118
 H         -0.9348890868        0.3942513956        3.1218298951
 H         -1.9421742461        2.3535053251        2.3893756963
 H         -3.9868456523        0.2440636974        1.6337335685
 H         -7.3015931826        1.3930108059       -0.9990022091
 H         -9.3189206494        0.0148692679       -0.7409132262
 H         -9.1650870719       -2.2314157688        0.2687033727
 H         -6.9738469541       -3.0947368224        1.0075734254
 H         -4.9517337255       -1.7271469824        0.7309027366
 H         -5.2918351770        1.4376570870       -2.2649415513
 H         -3.2765158416        2.8221483535       -2.5505977795
 H         -0.9657118655        4.0592053721       -2.3615486282
 H          1.2376116759        4.9481348602       -1.7237207324
 H          3.2748231131        2.7384438108        1.4753022020
 H          5.4804412539        3.6341249665        2.0723641168
 H          6.0736577886        5.9594098924        1.4920414137
 H          4.4341480107        7.3848585105        0.3217847540
 H          2.2193662414        6.4974833743       -0.2594378375
 H          1.0125887657        2.9465481135        2.0548223490
 H          0.3140764121       -1.6358077067        2.9500578988
 H          2.3295265322       -5.6655374970        3.0091458261
 H          3.2894427307       -7.6802220631        1.9090337525
 H          3.4598812449       -7.7357887365       -0.5614500132
 H          2.7103520540       -5.8503927203       -1.8906948317
