  82
       -136.75403206
 F         -3.6510317025       -6.0537152540        0.4718825274
 C         -3.1559114319       -5.3312682094       -0.5449389612
 F         -3.7706630874       -5.7948387544       -1.6594312419
 F         -1.8645127363       -5.7012792561       -0.6740110478
 C         -3.3183006344       -3.8578783922       -0.3693341960
 C         -4.1497655067       -3.3392502181        0.6232894373
 C         -4.2953262772       -1.9780856825        0.7548559876
 C         -3.6078912774       -1.1075679586       -0.1031135453
 N         -3.7623444381        0.2664244881        0.0128378184
 C         -2.7486835075        1.2439020885       -0.0028838547
 C         -1.3616388560        1.0546140247        0.0631793771
 C         -0.5257896419        2.1848842241       -0.1863919042
 C          0.8288208821        2.0870952429       -0.1596685438
 C          1.4832665730        0.8581873705        0.1244567808
 C          2.9117318925        0.7379990026        0.1109080571
 C          3.5429316619       -0.5062106379       -0.1099036001
 C          4.9083480413       -0.6275674781       -0.1296670117
 C          5.7257251180        0.4903516574        0.0772396799
 N          7.1130622514        0.3669323381        0.0645623410
 C          7.9946766128        1.1948137958       -0.6052328010
 C          7.7356938511        2.2659981853       -1.4494215326
 C          8.8151399530        2.9126652459       -2.0220303916
 C         10.1229277015        2.5020466227       -1.7765153363
 C         10.3859152146        1.4156579315       -0.9632211235
 C          9.3185009752        0.7522869284       -0.3763923651
 C          9.2221469540       -0.3988394810        0.4799358181
 C         10.1638973267       -1.2384561535        1.0561365290
 C          9.7245492720       -2.2615230949        1.8753561314
 C          8.3680472252       -2.4371192159        2.1367008069
 C          7.4117329162       -1.6121358915        1.5745663059
 C          7.8441970513       -0.6028856992        0.7251571730
 C          5.1209032950        1.7335644166        0.2990822638
 C          3.7550089841        1.8527580989        0.3117632944
 C          0.6498299124       -0.2443843351        0.4432300256
 C         -0.7086009814       -0.1583931757        0.4260577419
 N         -3.3012130383        2.4690347660        0.0197325655
 C         -4.6162084450        2.3218881868        0.1165999437
 C         -5.4929733753        3.4792322491        0.1348063644
 C         -5.0232100438        4.6644636352        0.7046061561
 C         -5.8202712407        5.7910384036        0.7323242100
 C         -7.0921331231        5.7569324845        0.1813126501
 C         -7.5558614604        4.5925405843       -0.4103492320
 C         -6.7658039688        3.4594775615       -0.4375892697
 C         -4.9579365085        0.9400453738        0.1288293002
 C         -6.2561814688        0.3227980273        0.1833536280
 C         -6.5952271177       -0.7609833500       -0.6403311049
 C         -7.8506351028       -1.3267971716       -0.5677385548
 C         -8.7925707126       -0.8384277757        0.3262884504
 C         -8.4720912881        0.2384596717        1.1413423225
 C         -7.2232319705        0.8174635268        1.0720189291
 C         -2.7774334658       -1.6381470805       -1.1034139727
 C         -2.6358763351       -2.9983516795       -1.2340772911
 H         -4.6678883322       -4.0076297959        1.2927974777
 H         -4.9241883053       -1.5738822516        1.5320398972
 H         -1.0148057901        3.1149613725       -0.4279808652
 H          1.4218349834        2.9545843944       -0.4054651452
 H          2.9401673077       -1.3765843387       -0.3174756346
 H          5.3652713375       -1.5821030952       -0.3453221761
 H          6.7256021622        2.5775935982       -1.6670541981
 H          8.6389265230        3.7515067864       -2.6785699677
 H         10.9395388444        3.0348955851       -2.2397525018
 H         11.3982428409        1.0837132142       -0.7901159368
 H         11.2165995836       -1.0887317856        0.8707865962
 H         10.4406656986       -2.9285007527        2.3310392389
 H          8.0553283186       -3.2319975684        2.7970981378
 H          6.3653310524       -1.7427532225        1.8040596626
 H          5.7425417507        2.5934300682        0.5007514888
 H          3.3194184902        2.8149405735        0.5311251779
 H          1.1050120379       -1.1694977932        0.7636520998
 H         -1.2925505203       -1.0044326651        0.7495630715
 H         -4.0301326362        4.6734520358        1.1264863569
 H         -5.4517206670        6.7000395250        1.1842842393
 H         -7.7170527632        6.6373142670        0.2046285370
 H         -8.5387608064        4.5685254966       -0.8575570221
 H         -7.1246718281        2.5647575014       -0.9231294477
 H         -5.8810191728       -1.1309395334       -1.3603927179
 H         -8.0990679871       -2.1544961109       -1.2155157698
 H         -9.7704040103       -1.2913296953        0.3846933318
 H         -9.2012849186        0.6232048050        1.8388094160
 H         -6.9694645356        1.6447689430        1.7180713287
 H         -2.2605371635       -0.9676450496       -1.7719550225
 H         -2.0048162449       -3.4100869998       -2.0065020505
  82
       -136.75371605
 F         -3.2693140976       -5.8942715396        0.9297065613
 C         -2.9557070089       -5.2951325138       -0.2415069905
 F         -3.6566100209       -5.9401614245       -1.1856855000
 F         -1.6584833763       -5.6079589915       -0.4611054330
 C         -3.1924659279       -3.8216067716       -0.2148095409
 C         -2.4955282647       -3.0526510010        0.7207883460
 C         -2.6846456770       -1.6931518577        0.7695694313
 C         -3.5776616331       -1.0725519597       -0.1190776556
 N         -3.7700481283        0.3001152974       -0.0558563649
 C         -2.7730710367        1.2882142543        0.0544240410
 C         -1.3875008230        1.1267775803       -0.0813727911
 C         -0.5457020683        2.2015076762        0.3337676547
 C          0.8082978577        2.1002621839        0.2889732561
 C          1.4561319143        0.9274334880       -0.1867864651
 C          2.8826414832        0.7839260353       -0.1614526815
 C          3.4927736640       -0.4902118386       -0.1741521753
 C          4.8543963639       -0.6382899939       -0.1113981119
 C          5.6901837858        0.4831421815       -0.0505778389
 N          7.0737818492        0.3334620362        0.0207977678
 C          8.0041010318        1.0170595874       -0.7392457958
 C          7.8087625879        1.9319371290       -1.7649261298
 C          8.9278107631        2.4510946352       -2.3887631508
 C         10.2129660492        2.0651394358       -2.0164321665
 C         10.4132257724        1.1302002630       -1.0180835598
 C          9.3051513936        0.5969014658       -0.3765692656
 C          9.1426148186       -0.3871687983        0.6593017665
 C         10.0366930425       -1.1317682855        1.4143158266
 C          9.5363018969       -1.9891625102        2.3762618465
 C          8.1658247198       -2.0916834933        2.6008765115
 C          7.2561773462       -1.3593800962        1.8611015445
 C          7.7506348870       -0.5206403543        0.8715510574
 C          5.1085458247        1.7564878260       -0.0571788928
 C          3.7456199479        1.9004315165       -0.1029752870
 C          0.6140177265       -0.0956685540       -0.6947564471
 C         -0.7434662689       -0.0071260754       -0.6549219958
 N         -3.3437572876        2.4921779173        0.2256722043
 C         -4.6597620705        2.3300683099        0.1651668753
 C         -5.5578023220        3.4557813733        0.3518238282
 C         -6.7959488474        3.3221832364        0.9823307873
 C         -7.6098422802        4.4253999260        1.1530378876
 C         -7.2041289157        5.6722957340        0.7041465749
 C         -5.9656739270        5.8173380114        0.0977715053
 C         -5.1448177440        4.7205878443       -0.0719848265
 C         -4.9799268578        0.9561220978       -0.0258034174
 C         -6.2717328388        0.3288699821       -0.1104609844
 C         -7.2849297698        0.9297538277       -0.8734901846
 C         -8.5330084989        0.3516057889       -0.9600849171
 C         -8.8065065201       -0.8311528198       -0.2870325983
 C         -7.8169971855       -1.4289841765        0.4799768415
 C         -6.5620557052       -0.8639855326        0.5679570583
 C         -4.2791989012       -1.8530081470       -1.0486088557
 C         -4.0846709023       -3.2138922469       -1.0977444241
 H         -1.8168047541       -3.5351437416        1.4070662077
 H         -2.1582389681       -1.0932074978        1.4951148307
 H         -1.0282505116        3.0831352033        0.7243046068
 H          1.4044341838        2.9138820625        0.6719542005
 H          2.8762418717       -1.3748326254       -0.2060687068
 H          5.2944222664       -1.6243485915       -0.1334184152
 H          6.8171041932        2.2208965335       -2.0778019502
 H          8.8012160296        3.1673295634       -3.1867324577
 H         11.0619555567        2.4961686588       -2.5250728067
 H         11.4084286704        0.8148162571       -0.7441703658
 H         11.0998802419       -1.0357514389        1.2552255516
 H         10.2147340259       -2.5803878877        2.9725345448
 H          7.8047517230       -2.7535413554        3.3737923657
 H          6.1978219552       -1.4292524548        2.0603694304
 H          5.7439418946        2.6274614550        0.0070850747
 H          3.3305399727        2.8959247329       -0.1149971209
 H          1.0604592280       -0.9526067895       -1.1761549937
 H         -1.3355860936       -0.7789817214       -1.1195165274
 H         -7.1079901571        2.3598553554        1.3590208590
 H         -8.5647746383        4.3127785102        1.6450147060
 H         -7.8477588970        6.5294564188        0.8346447012
 H         -5.6420079346        6.7897961409       -0.2429617503
 H         -4.1772155290        4.8152678744       -0.5399671795
 H         -7.0686169486        1.8421909095       -1.4090178067
 H         -9.2989349614        0.8212201459       -1.5592382643
 H         -9.7845110248       -1.2820475527       -0.3573320289
 H         -8.0281151604       -2.3416859672        1.0174113098
 H         -5.8097825901       -1.3227069987        1.1918224711
 H         -4.9575873355       -1.3779332222       -1.7393568108
 H         -4.6141382796       -3.8119881921       -1.8225698631
