90
 energy: -138.054791011455 gnorm: 0.000025205673 xtb: 6.7.1 (edcfbbe)
C           -9.71186645574418       -5.90946989735267       -0.54794396606392
C           -8.59177159267437       -5.99137296321477       -1.35878747670985
C           -7.59813191890490       -5.03361394354078       -1.27195970515507
C           -7.70948142013296       -3.97263824246192       -0.37547120240401
C           -6.65529419771727       -2.94976614444936       -0.28460415335418
C           -5.30574542183787       -3.32937482067105       -0.30086731697503
C           -4.28296102849417       -2.40667637832771       -0.21894632796383
C           -4.62178455713364       -1.06328278697720       -0.13437083759021
C           -5.97680906912388       -0.66072507553974       -0.09502977461078
C           -6.98838855409554       -1.60577520858997       -0.17148410384462
C           -5.97255045171100        0.77025502446520        0.04266687086582
C           -6.97801645998934        1.72145493813072        0.12404598759065
C           -6.63624857774769        3.06396099392855        0.23016898175480
C           -7.68325145954213        4.09378217349708        0.32571503506991
C           -8.80313944306226        3.89342592649773        1.13057153224258
C           -9.78525295757542        4.86188056922902        1.22781682913212
C           -9.66806649677826        6.04712415737399        0.52052274424743
C           -8.56163343493942        6.25598019315915       -0.28632833411606
C           -7.57706759540071        5.28973193809095       -0.38159298688805
C           -5.28425907465563        3.43481063568983        0.24231404638543
C           -4.26748745709648        2.50471308645994        0.17109595678879
C           -4.61503042178747        1.16358383837763        0.08664600374688
N           -3.81015441964494        0.04752926401339       -0.02242627882263
C           -2.40785613509836        0.04564901047190       -0.01431775823271
C           -1.69838567466027       -0.61139165614975       -1.01609863896340
C           -0.31801046631115       -0.61067716386015       -1.00224073131280
C            0.38798186057439        0.05698753624423       -0.00237383415695
C            1.85695672695549        0.06987228830113       -0.00006646142107
C            2.58366285674575       -1.07912037897041       -0.31241231212380
C            3.96241394020201       -1.06399052380365       -0.30514835835145
C            4.66037655303812        0.10504240229180       -0.00251573108297
C            6.12756448391513        0.09184021318686       -0.01340968319964
C            6.88744871939025        1.23216615905142       -0.27414298538890
C            8.27470314385199        1.09378026084756       -0.26064534069908
C            9.18349192741392        2.21852058300254       -0.52133617804453
C           10.45376366688935        2.21531527796051        0.05301063998662
C           11.32635507669767        3.26305765586819       -0.17049283492287
C           10.94646126621689        4.32327661883364       -0.97837353362404
C            9.69077773197340        4.32843782859169       -1.56400402540876
C            8.81188772874597        3.28505877886482       -1.33753734653077
N            8.84097975912781       -0.08122366278528        0.01073815467697
C            8.04399351016934       -1.12041040592678        0.23662951989579
C            8.67965297839377       -2.41030159823262        0.52558912369879
C            7.90642728544576       -3.50539031114197        0.90734893381627
C            8.50843360949417       -4.71774422655988        1.18569358043501
C            9.88487796550306       -4.85056701320288        1.08629531528455
C           10.65954198288767       -3.76553897710296        0.70576721919748
C           10.06278569192348       -2.55094141298849        0.42570144936283
N            6.71609605708136       -1.07992425247011        0.22451725008411
C            3.93702470511245        1.25415185596855        0.31245219941430
C            2.55719558735025        1.23287221504669        0.31875424707484
C           -0.33193491882460        0.71493575386031        0.99410105017108
C           -1.71205507304288        0.70430839249509        0.99613216895939
C           -8.84184366346359       -3.89995526532482        0.43348029473615
C           -9.83281222858083       -4.86054300890029        0.34866607610521
H          -10.48714069394385       -6.65897932938929       -0.61510914802191
H           -8.49356485660566       -6.80487410527057       -2.06373544689451
H           -6.73475857016135       -5.09475584830584       -1.91914518758691
H           -5.06186212221890       -4.38037730556940       -0.35413142159187
H           -3.25166898421863       -2.72590572204245       -0.20883419766292
H           -8.02322716588593       -1.29765811124231       -0.16107212820532
H           -8.01475529335727        1.42305992376370        0.07828197768800
H           -8.89261738399022        2.97817517674053        1.69829448031748
H          -10.64486502457321        4.69338376364915        1.86113617896844
H          -10.43551497103670        6.80378028882399        0.59696065294071
H           -8.46657857673467        7.17623589692156       -0.84530696521986
H           -6.72510526109718        5.45339044179641       -1.02603251154043
H           -5.03256125413871        4.48172933193549        0.32881698471998
H           -3.23394601755245        2.81660723942401        0.17474830916871
H           -2.23540464268643       -1.10665358095724       -1.81139246793512
H            0.22162081345254       -1.10747107273476       -1.79479845178850
H            2.06031304954663       -1.99595071354471       -0.54036225276305
H            4.52580345045021       -1.95425649137693       -0.53966641292746
H            6.42207665550014        2.18128932170352       -0.47896259104906
H           10.73478163472334        1.38255936564101        0.67951549589020
H           12.30589233509279        3.25314553068731        0.28467414879542
H           11.62864168241708        5.14175305994153       -1.15507860036770
H            9.39557643680538        5.14766163433533       -2.20333780647494
H            7.84429186509327        3.28901608155374       -1.81784164929789
H            6.83709553786999       -3.38405967778938        0.98556777828267
H            7.90421135648279       -5.56256916203055        1.48287734712727
H           10.35355120886238       -5.79894531462490        1.30536378741057
H           11.73206581526251       -3.86865629097572        0.62685686330505
H           10.65101925268910       -1.69796698129370        0.12437716253783
H            4.45366415480737        2.16491198515238        0.57772907978730
H            2.01247484758460        2.13499102901102        0.55566818688617
H            0.19645472536752        1.21427747641051        1.79261761197675
H           -2.25990476094992        1.19390507351570        1.78757861587479
H           -8.93481130609028       -3.09329630730145        1.14667596162766
H          -10.70270312289460       -4.79289097307184        0.98674507950752
