  44
        -64.83645768
 C         -5.6745051538        0.0050723291       -0.0266926353
 C         -4.9692430609        0.4340346095       -1.1386119499
 C         -3.5861151841        0.4328347179       -1.1268053902
 C         -2.8909648750       -0.0009880409       -0.0022367787
 C         -1.4127084335       -0.0022889742        0.0085706238
 C         -0.7148538668       -1.2181195880        0.0033812782
 C         -1.3893374838       -2.4671401259       -0.0325796098
 C         -0.7019876925       -3.6413530976       -0.0167912984
 C          0.7063350125       -3.6404397060        0.0386398238
 C          1.3917171960       -2.4651062107        0.0520269919
 C          0.7148423405       -1.2173590190        0.0158928960
 C          1.4120946473       -0.0014668335        0.0076433803
 C          2.8906505676       -0.0006488556       -0.0018336450
 C          3.6048731678        0.4097236390        1.1195793948
 C          4.9879499867        0.4095304400        1.1074911627
 C          5.6738711483        0.0045693352       -0.0254036239
 C          4.9705288100       -0.4039761050       -1.1462311091
 C          3.5874180695       -0.4089811678       -1.1348041243
 C          0.7144787198        1.2144651149        0.0050244267
 C          1.3898895074        2.4628613860       -0.0284106600
 C          0.7033131322        3.6375046370       -0.0097161409
 C         -0.7047033509        3.6370845408        0.0489336570
 C         -1.3908045602        2.4620736774        0.0610511711
 C         -0.7151058284        1.2139703208        0.0193017722
 C         -3.6074752416       -0.4317702153        1.1102567508
 C         -4.9903507330       -0.4264097812        1.0976568666
 H         -6.7543288303        0.0091276023       -0.0350497018
 H         -5.4980733546        0.7724321024       -2.0180383609
 H         -3.0334467104        0.7651484256       -1.9941591173
 H         -2.4682593087       -2.4685656044       -0.0745345607
 H         -1.2298094855       -4.5834593844       -0.0436816405
 H          1.2356568830       -4.5816690044        0.0661409652
 H          2.4706792351       -2.4639438326        0.0924736443
 H          3.0668877504        0.7257383745        2.0020577746
 H          5.5327085195        0.7301600505        1.9837256268
 H          6.7538065341        0.0088771037       -0.0350802453
 H          5.5011339752       -0.7208246645       -2.0323374442
 H          3.0357347095       -0.7266883271       -2.0082410008
 H          2.4687475070        2.4637411325       -0.0718755539
 H          1.2316682467        4.5793060789       -0.0367308480
 H         -1.2334796368        4.5785025220        0.0800189115
 H         -2.4695913127        2.4621037628        0.1055806345
 H         -3.0711732952       -0.7646086462        1.9875519972
 H         -5.5365597230       -0.7576968835        1.9686275423
