44
 energy: -64.792268205459 gnorm: 0.000042109279 xtb: 6.7.1 (edcfbbe)
C           -5.68223337598956       -0.00041268912943       -0.00194419469648
C           -4.98447919376897        0.64613215979476       -1.01049466920518
C           -3.60306483052908        0.65360428814192       -1.00829557979458
C           -2.88623430297134        0.00001425556027       -0.00153042613115
C           -1.42352965522997        0.00028652449356       -0.00131779698999
C           -0.71337124771175       -1.23857887876097       -0.02923393678329
C           -1.37659681296181       -2.46467155840542       -0.13002232478232
C           -0.68366568164864       -3.67499026978307       -0.08574174993803
C            0.68528985907038       -3.67510464522536        0.06396183583988
C            1.37772649646221       -2.46474173581108        0.11456383982289
C            0.71397745960498       -1.23842022153739        0.02024303955353
C            1.42362383020740        0.00085911818849       -0.00110671966422
C            2.88633256644123        0.00112746134531       -0.00118311107604
C            3.60312076707586        0.64923516817880        1.00914704435792
C            4.98454136208913        0.64219452148475        1.01102550054155
C            5.68229214864223        0.00158831811832       -0.00131063211746
C            4.98465700676475       -0.63924568805827       -1.01358418721878
C            3.60323993843856       -0.64674614220800       -1.01157260674437
C            0.71348787439085        1.23985943448068       -0.02246933819397
C            1.37674774029011        2.46646017476592       -0.11661650835238
C            0.68380960370452        3.67653583542095       -0.06603694312850
C           -0.68517096330328        3.67585788668870        0.08343608360541
C           -1.37761296050558        2.46525210303505        0.12752583653905
C           -0.71386932136271        1.23943652826203        0.02678647477980
C           -3.60315928813105       -0.65380723514378        1.00501520088761
C           -4.98457820008085       -0.64675706284552        1.00680218085993
H           -6.76236211955486       -0.00057207945538       -0.00210017047215
H           -5.52132482264160        1.14548991210781       -1.80454970807582
H           -3.06224217003958        1.14335457301456       -1.80570830214444
H           -2.44933718040911       -2.47933415689309       -0.24805835617840
H           -1.23011951136329       -4.60387516358957       -0.15768864419177
H            1.23213285139536       -4.60412997578068        0.13098670931814
H            2.45047892423185       -2.47957079483960        0.23247299259099
H            3.06225196454493        1.13427432881113        1.80941172064291
H            5.52140500437421        1.13723731891784        1.80776521889596
H            6.76242009359589        0.00176485190913       -0.00136182186928
H            5.52160873995576       -1.13410843741191       -1.81037660566703
H            3.06245278483939       -1.13197594467190       -1.81177709842337
H            2.44951046581296        2.48174219997510       -0.23436599189951
H            1.23028757608974        4.60578688675413       -0.13291088623414
H           -1.23201716387621        4.60451541754463        0.15534206714543
H           -2.45038104858001        2.47946699346482        0.24536830913510
H           -3.06242889085558       -1.14339586147008        1.80258953862780
H           -5.52150791300409       -1.14628010973930        1.80069646699305
