  54
        -78.00571739
 N          0.8402359095       -4.0780338716        1.7709120356
 C          1.4587164409       -3.1524122033        1.4949040709
 C          2.2384372076       -2.0224353548        1.1604745963
 C          3.0894886557       -2.0713784798        0.0552943846
 C          3.8891468483       -0.9880044438       -0.2384790186
 C          3.8593058464        0.1614891482        0.5469819858
 C          4.7870217212        1.3010345144        0.2425991647
 C          4.5115018060        1.9705632810       -1.1091224148
 C          3.2808692274        2.8813946146       -1.0871655677
 C          1.9866009544        2.1565524843       -0.8468283744
 C          1.1917301349        2.4562524215        0.2516779138
 C         -0.0243654830        1.8339309747        0.4483449704
 C         -0.4943526066        0.8948858613       -0.4691780648
 N         -1.7513381902        0.3104510814       -0.3039396560
 C         -1.9872580363       -1.0067716669       -0.7172504365
 C         -1.0099034568       -1.9851772181       -0.5485741467
 C         -1.2473204415       -3.2865493544       -0.9441144192
 C         -2.4616041020       -3.6333520902       -1.5133488360
 C         -3.4363239100       -2.6644917939       -1.6873179192
 C         -3.2055217254       -1.3596808943       -1.2968711110
 C         -2.8037179057        1.0562501049        0.2432297283
 C         -3.7127089209        0.4544318522        1.1130674985
 C         -4.7585341593        1.1855961116        1.6416992099
 C         -4.9120025647        2.5245396283        1.3203766797
 C         -4.0093569385        3.1280791178        0.4601109162
 C         -2.9644101240        2.4034736727       -0.0794260909
 C          0.3092120143        0.5757002603       -1.5644953499
 C          1.5263572848        1.1987172519       -1.7434916080
 C          2.9921700574        0.2058229188        1.6324941490
 C          2.1839440890       -0.8690842933        1.9424022370
 H          3.1239879066       -2.9641459234       -0.5519661353
 H          4.5626402423       -1.0402866532       -1.0817286893
 H          5.8097332430        0.9122785364        0.2296606612
 H          4.7246979327        2.0500605518        1.0342324141
 H          5.3797159701        2.5765230760       -1.3792463855
 H          4.3883998413        1.2058354023       -1.8768700629
 H          3.2209493189        3.3930981370       -2.0527905386
 H          3.4164116871        3.6445327454       -0.3175016449
 H          1.5254061418        3.1955381451        0.9666717398
 H         -0.6262873024        2.0822017841        1.3103277443
 H         -0.0677185093       -1.7148496102       -0.0962964417
 H         -0.4858187523       -4.0353904655       -0.7864856084
 H         -2.6480746978       -4.6522431875       -1.8166802145
 H         -4.3840146410       -2.9246588372       -2.1359509286
 H         -3.9661867787       -0.6053911172       -1.4378270175
 H         -3.5898394844       -0.5877582353        1.3693584977
 H         -5.4544038373        0.7078057380        2.3156643206
 H         -5.7299004540        3.0932772095        1.7362495732
 H         -4.1254550217        4.1697118988        0.1981555739
 H         -2.2681228756        2.8734240928       -0.7590472292
 H         -0.0392264795       -0.1484876849       -2.2861655204
 H          2.1182892429        0.9525591160       -2.6135662047
 H          2.9565941467        1.0904531487        2.2506648000
 H          1.5170085100       -0.8299652540        2.7912550427
