54
 energy: -78.005739155771 gnorm: 0.000071888255 xtb: 6.7.1 (edcfbbe)
N            0.82396663338986       -4.06636573667224        1.77653150713623
C            1.44362096293190       -3.14056375202300        1.50375293377812
C            2.22648657764049       -2.01363953081235        1.16617248718386
C            3.07948964571125       -2.06740815377681        0.06260514852563
C            3.88094572635303       -0.98590017749826       -0.23354585210445
C            3.85142341278741        0.16626589994868        0.54797585625024
C            4.77936572127220        1.30469826279810        0.23993193956471
C            4.50975708166184        1.96394798252689       -1.11812823939741
C            3.28040096754664        2.87702284238073       -1.10803364323461
C            1.98555422193759        2.15440240730863       -0.86477267590663
C            1.19906474201051        2.44673431188787        0.24163562598309
C           -0.01590128283200        1.82379140433882        0.44254833039824
C           -0.49387491211620        0.89296883579613       -0.47920417264639
N           -1.75072572491450        0.30886982152995       -0.30950422615293
C           -1.98825885966302       -1.00743811234630       -0.72472007189736
C           -1.00674639162934       -1.98408102310580       -0.56977123396952
C           -1.24544428871134       -3.28477951780908       -0.96669683385029
C           -2.46510684439045       -3.63280073698346       -1.52343767295409
C           -3.44372672350371       -2.66559700043263       -1.68433431322343
C           -3.21168113842521       -1.36138039274120       -1.29270880289368
C           -2.79701884097314        1.05255134199800        0.25161582715554
C           -3.70253605548144        0.44672159399312        1.12225958361226
C           -4.74013295452679        1.17808210577442        1.66664421518662
C           -4.88855533932654        2.52116382626806        1.36114283643192
C           -3.98971763997043        3.12859450615423        0.49967863066043
C           -2.95365091396780        2.40376405914856       -0.05625268608947
C            0.30090313647058        0.58169097438110       -1.58301964517507
C            1.51800434479410        1.20406286167047       -1.76544428374799
C            2.98402755534799        0.21444545717565        1.63319697878649
C            2.17365207966790       -0.85819070967666        1.94510130317630
H            3.11407940431114       -2.96192803742488       -0.54214533925556
H            4.55563687749868       -1.04204290991794       -1.07561477124083
H            5.80257328357487        0.91699601045142        0.23500116506974
H            4.71236825247350        2.05938326347521        1.02579617983909
H            5.37993140160323        2.56613548424033       -1.39037912000512
H            4.38735637773280        1.19328433173816       -1.88018583881796
H            3.22400146687179        3.37984309807246       -2.07847632163752
H            3.41447896980303        3.64673128632923       -0.34467828442912
H            1.53890521684450        3.18019551293273        0.95960828840557
H           -0.61100241630425        2.06511888446621        1.31111978888865
H           -0.06011762348645       -1.71296130019225       -0.12737323035064
H           -0.48053811769029       -4.03229558752937       -0.81996759751880
H           -2.65245437601003       -4.65123551929637       -1.82766730928868
H           -4.39564713089962       -2.92675719338054       -2.12326485833831
H           -3.97534729530535       -0.60846959740953       -1.42355512806719
H           -3.58352324849099       -0.59859257871719        1.36710607250327
H           -5.43344830491446        0.69708895064426        2.34090745560550
H           -5.69921161721020        3.09018919110395        1.79045752205318
H           -4.10145921756250        4.17371608062985        0.25022668568534
H           -2.26037092771781        2.87697823812681       -0.73638039876990
H           -0.05412074800063       -0.13580754719638       -2.30813333152426
H            2.10377969229830        0.96400831237605       -2.64134047996047
H            2.94942087342673        1.10037074698251        2.24964327153628
H            1.50597545039773       -0.81572060938739        2.79310955757320
