54
 energy: -78.002285458474 gnorm: 0.000057349007 xtb: 6.7.1 (edcfbbe)
N            7.11088876973483       -3.59173198244310       -2.17154764765108
C            6.49220749127474       -2.69150074419104       -1.82234538533665
C            5.73168690943774       -1.58233780657682       -1.38951107305092
C            6.35417174610729       -0.52750378305593       -0.72026812163054
C            5.60473068524187        0.55099817292880       -0.29882165772867
C            4.23237640050658        0.60460804238933       -0.52855583691656
C            3.42987220192283        1.77398722344814       -0.04061980714912
C            3.35726707810457        1.82465206981271        1.49074770516726
C            2.66581294149969        0.59406105244845        2.08792745041131
C            1.26295395630561        0.41294024368200        1.57937152825581
C            0.30157082142825        1.39938626444384        1.77257965712299
C           -0.98402414885644        1.24760400084254        1.29605279633120
C           -1.34842805256460        0.09309212640829        0.60347676679740
N           -2.64950408725518       -0.06163257693860        0.11204304691119
C           -3.32931901177088        1.04058384457910       -0.41677697614268
C           -2.64421945121659        2.00409770539545       -1.15718684571307
C           -3.31657624503244        3.09393412243001       -1.67449033145632
C           -4.67914145518566        3.23910622743567       -1.47197506249389
C           -5.36539653513615        2.28363002739653       -0.74037328455074
C           -4.70036614957183        1.19479065860670       -0.21154283088042
C           -3.27139285391128       -1.31407179709052        0.16360206983342
C           -3.05522069156823       -2.16714192839728        1.24571986143254
C           -3.66889770744041       -3.40369595906612        1.29071232332891
C           -4.51145729695919       -3.80739880176861        0.26798912730721
C           -4.73190119853523       -2.96282062549622       -0.80770401265149
C           -4.11586489479828       -1.72803538752601       -0.86645604007842
C           -0.39296084175249       -0.90424004857625        0.41664876334907
C            0.88921736428136       -0.74198507865533        0.90394710474309
C            3.62458170176642       -0.44765543498295       -1.20487999077104
C            4.35922792061696       -1.53540991273248       -1.63332089088650
H            7.41860168468280       -0.56399780380113       -0.53996962484429
H            6.09145864464387        1.36888903146605        0.21260875177793
H            2.41663578784204        1.71996931097208       -0.44279204693439
H            3.89022340460192        2.69964589079738       -0.39652903127884
H            4.36598299302397        1.89431625528478        1.90283194493954
H            2.81556516687554        2.72625142247455        1.78153775782130
H            2.64329955118070        0.70615734243835        3.17595390771909
H            3.25369584084169       -0.29659455097288        1.85606709320497
H            0.55710426356327        2.29683453555651        2.31718193618345
H           -1.71959540972856        2.02111394830906        1.46187693979434
H           -1.58338608555146        1.88849017017159       -1.32576122226003
H           -2.77348335381373        3.83086541248504       -2.24801713658968
H           -5.20208151875293        4.09015856951400       -1.88101376731148
H           -6.42691200080338        2.39119706535687       -0.57204953104097
H           -5.23671786656761        0.45722390472308        0.36737947102922
H           -2.40712428426525       -1.85087506265335        2.05007788972116
H           -3.49465641388831       -4.05312619903137        2.13609016490383
H           -4.99255179303357       -4.77276734831906        0.30889179410311
H           -5.38266400935166       -3.27109101071566       -1.61283400562152
H           -4.28209209732435       -1.07579174505276       -1.71140842460757
H           -0.66206479853136       -1.80595392718177       -0.11395676993962
H            1.61514665578030       -1.52855596603959        0.75288297129009
H            2.56213260104340       -0.41172816378836       -1.39695159732472
H            3.88158367086563       -2.35094099672328       -2.15653787062249
