  43
  -65.0433081800000       0.500547615609824      !
 C         -2.3823730550        3.6025702157       -0.3720423490
 C         -1.0016177519        3.6414663555       -0.5021081090
 C         -0.2691463828        2.4694091905       -0.4362899880
 C         -0.8935122534        1.2459605199       -0.2473093334
 C         -2.2886234149        1.2107197522       -0.1276630441
 C         -3.0239572109        2.3952053979       -0.1883270240
 N         -2.9347737746        0.0092875029        0.0430700095
 C         -2.2979712508       -1.2072138738       -0.0257416190
 C         -3.0431743849       -2.3867456611        0.0035405548
 C         -2.4108307938       -3.6102382278       -0.0764358080
 C         -1.0292849621       -3.6708906351       -0.1879838699
 C         -0.2872197717       -2.5031259804       -0.2119377546
 C         -0.9026050751       -1.2633092752       -0.1321702349
 C         -0.0672136613       -0.0077249919       -0.1025014988
 C          0.7036917669        0.0588463980        1.2080283500
 C          0.2187215893        0.1309207538        2.4748642467
 C          1.1235342045        0.1926440631        3.5507001725
 C          2.5149916010        0.1805291545        3.3146359946
 C          3.0278279637        0.1080342916        2.0543801410
 C          2.1297526727        0.0444187372        0.9416352722
 C          2.3426463426       -0.0296520028       -0.4237090718
 C          3.5378423694       -0.0780273079       -1.2099916870
 C          3.4329187304       -0.1535546237       -2.5676505490
 C          2.1810105113       -0.1835152640       -3.2146747972
 C          0.9897574645       -0.1364769689       -2.4637869997
 C          1.0649327842       -0.0622759364       -1.1099012329
 H         -2.9582007296        4.5145668974       -0.4160394718
 H         -0.4980475695        4.5843128236       -0.6497462696
 H          0.8061900740        2.4963940787       -0.5271196591
 H         -4.0999407750        2.3545236191       -0.0911838858
 H         -3.9427438446        0.0157816292        0.1042570397
 H         -4.1196338233       -2.3295972305        0.0861210942
 H         -2.9944771091       -4.5180195164       -0.0538422299
 H         -0.5325863449       -4.6266439607       -0.2525166348
 H          0.7884397643       -2.5461211584       -0.2926302210
 H         -0.8454191779        0.1424963323        2.6668662007
 H          0.7531710300        0.2503232859        4.5616124160
 H          3.1803336573        0.2296347066        4.1653571194
 H          4.0926016139        0.0998835968        1.8781045597
 H          4.4985173377       -0.0555270245       -0.7187954454
 H          4.3265009009       -0.1927123290       -3.1749597803
 H          2.1354368153       -0.2440469806       -4.2901320790
 H          0.0340494665       -0.1610090041       -2.9689851137
  43
  -65.0433061100000       0.499452384390176      !
 C         -2.3699051908        3.5924799727       -0.5126390411
 C         -1.0705278498        3.6600726911       -0.0309745004
 C         -0.3531935323        2.4966911553        0.1851570435
 C         -0.9150587576        1.2540715800       -0.0645775036
 C         -2.2317301957        1.1907665876       -0.5388963523
 C         -2.9494528405        2.3659672931       -0.7638004529
 N         -2.8195754900       -0.0296246677       -0.7746463787
 C         -2.2431083186       -1.2252275358       -0.4149508040
 C         -2.9742489478       -2.4095302349       -0.5127019435
 C         -2.4054805797       -3.6097321592       -0.1393516192
 C         -1.1029340038       -3.6414582782        0.3366919421
 C         -0.3727728461       -2.4695314689        0.4281796698
 C         -0.9247146491       -1.2531528588        0.0573655807
 C         -0.0894839446        0.0021371136        0.0994152102
 C          0.7939994226        0.0565459279        1.3298850217
 C          0.4238951286        0.1126581760        2.6354001166
 C          1.4214514286        0.1548745700        3.6294017443
 C          2.7844805829        0.1398565659        3.2719241948
 C          3.1844978526        0.0836337397        1.9692802640
 C          2.1909752161        0.0386207554        0.9401171362
 C          2.2827371985       -0.0237652363       -0.4394040082
 C          3.4030075823       -0.0626175682       -1.3291985175
 C          3.1794834002       -0.1201534011       -2.6719770558
 C          1.8734004520       -0.1432764475       -3.2070182693
 C          0.7546967635       -0.1070686807       -2.3548590525
 C          0.9498207848       -0.0497585043       -1.0115466405
 H         -2.9313516875        4.4971550218       -0.6899818478
 H         -0.6167189915        4.6182049597        0.1700713590
 H          0.6615179748        2.5456355993        0.5504056230
 H         -3.9631801193        2.3033941478       -1.1340246963
 H         -3.7778582265       -0.0417247491       -1.0930552123
 H         -3.9908945637       -2.3742524928       -0.8789532679
 H         -2.9783305949       -4.5214693208       -0.2160085593
 H         -0.6572552531       -4.5786223348        0.6321442586
 H          0.6440165587       -2.4913324562        0.7901220785
 H         -0.6192379570        0.1246779018        2.9190594403
 H          1.1411057993        0.1983756959        4.6695164990
 H          3.5230745096        0.1730115788        4.0605392575
 H          4.2295528120        0.0726433622        1.7003770898
 H          4.4032617245       -0.0450500179       -0.9241176803
 H          4.0153772388       -0.1490760651       -3.3569474535
 H          1.7338873594       -0.1893738313       -4.2751644747
 H         -0.2413725759       -0.1249901570       -2.7755499682
