  43
        -65.04330818
 C         -2.3823730550        3.6025702157       -0.3720423490
 C         -1.0016177519        3.6414663555       -0.5021081090
 C         -0.2691463828        2.4694091905       -0.4362899880
 C         -0.8935122534        1.2459605199       -0.2473093334
 C         -2.2886234149        1.2107197522       -0.1276630441
 C         -3.0239572109        2.3952053979       -0.1883270240
 N         -2.9347737746        0.0092875029        0.0430700095
 C         -2.2979712508       -1.2072138738       -0.0257416190
 C         -3.0431743849       -2.3867456611        0.0035405548
 C         -2.4108307938       -3.6102382278       -0.0764358080
 C         -1.0292849621       -3.6708906351       -0.1879838699
 C         -0.2872197717       -2.5031259804       -0.2119377546
 C         -0.9026050751       -1.2633092752       -0.1321702349
 C         -0.0672136613       -0.0077249919       -0.1025014988
 C          0.7036917669        0.0588463980        1.2080283500
 C          0.2187215893        0.1309207538        2.4748642467
 C          1.1235342045        0.1926440631        3.5507001725
 C          2.5149916010        0.1805291545        3.3146359946
 C          3.0278279637        0.1080342916        2.0543801410
 C          2.1297526727        0.0444187372        0.9416352722
 C          2.3426463426       -0.0296520028       -0.4237090718
 C          3.5378423694       -0.0780273079       -1.2099916870
 C          3.4329187304       -0.1535546237       -2.5676505490
 C          2.1810105113       -0.1835152640       -3.2146747972
 C          0.9897574645       -0.1364769689       -2.4637869997
 C          1.0649327842       -0.0622759364       -1.1099012329
 H         -2.9582007296        4.5145668974       -0.4160394718
 H         -0.4980475695        4.5843128236       -0.6497462696
 H          0.8061900740        2.4963940787       -0.5271196591
 H         -4.0999407750        2.3545236191       -0.0911838858
 H         -3.9427438446        0.0157816292        0.1042570397
 H         -4.1196338233       -2.3295972305        0.0861210942
 H         -2.9944771091       -4.5180195164       -0.0538422299
 H         -0.5325863449       -4.6266439607       -0.2525166348
 H          0.7884397643       -2.5461211584       -0.2926302210
 H         -0.8454191779        0.1424963323        2.6668662007
 H          0.7531710300        0.2503232859        4.5616124160
 H          3.1803336573        0.2296347066        4.1653571194
 H          4.0926016139        0.0998835968        1.8781045597
 H          4.4985173377       -0.0555270245       -0.7187954454
 H          4.3265009009       -0.1927123290       -3.1749597803
 H          2.1354368153       -0.2440469806       -4.2901320790
 H          0.0340494665       -0.1610090041       -2.9689851137
