  91
       -144.97456280
 N         -9.9711041655        2.5788555875        0.8142461841
 C         -9.0497933070        1.9696170261        0.4973563690
 C         -7.8823754573        1.2594752230        0.1686416162
 C         -6.8822416547        1.8173606043       -0.6579909252
 C         -7.0743469796        3.0665413996       -1.4010289096
 C         -5.9869435979        3.9213843990       -1.5743868353
 C         -6.1350904600        5.1035465950       -2.2724708642
 C         -7.3645086032        5.4386752931       -2.8172701744
 C         -8.4430810690        4.5826836244       -2.6682082727
 C         -8.3031379516        3.4012243489       -1.9641735324
 N         -5.7047274643        1.2286385040       -0.7882281207
 C         -5.4870848038        0.0855962481       -0.1436587254
 C         -4.1656277857       -0.5201570400       -0.2575739909
 C         -3.1738287325        0.0871710664       -1.0286443540
 C         -1.9264114713       -0.4868952108       -1.1383056412
 C         -1.6424059376       -1.6809132032       -0.4737341522
 N         -0.3815089012       -2.2675271020       -0.5876629845
 C         -0.1314217003       -3.5991910059       -0.8688629342
 C         -1.0198676968       -4.6254440895       -1.1552967209
 C         -0.4959735511       -5.8728584253       -1.4381114271
 C          0.8779611427       -6.1001439828       -1.4489415948
 C          1.7678423520       -5.0755446232       -1.1946372018
 C          1.2647724605       -3.8140349830       -0.9076818362
 C          1.8822565133       -2.5461399408       -0.6312997915
 C          3.2026627696       -2.1405263931       -0.5202516882
 C          3.4822698985       -0.8162512451       -0.2077159784
 C          4.8744794671       -0.3555534896       -0.0945381111
 C          5.8290128368       -0.7883911895       -1.0255199806
 C          7.1455804948       -0.3805688185       -0.9707638025
 C          7.5164544511        0.4874350510        0.0462836405
 C          6.5763012733        0.9139547194        1.0120318079
 C          5.2564028979        0.4972285449        0.9328320923
 C          7.2930847952        1.7470032052        1.9371761195
 C          6.9204850541        2.4575795897        3.0704036294
 C          7.8801204605        3.1954624304        3.7340658013
 C          9.1936475473        3.2430170114        3.2722141041
 C          9.5887601074        2.5446864915        2.1473534330
 C          8.6342193384        1.7816471981        1.4904138950
 N          8.7545751375        1.0175316536        0.3466542000
 C          9.9329297955        0.8146720887       -0.3852084111
 C         11.0939675792        0.3985144365        0.2598004853
 C         12.2548576465        0.2050229430       -0.4655436965
 C         12.2664694730        0.4138320346       -1.8346729933
 C         11.1104939598        0.8226758219       -2.4786863199
 C          9.9471945983        1.0282080598       -1.7605155330
 C          2.4260937086        0.0789040642        0.0080081079
 C          1.1043047654       -0.3028003575       -0.1022106234
 C          0.8324318205       -1.6196397315       -0.4437944433
 C         -2.6314280650       -2.2875258400        0.3019620639
 C         -3.8795833474       -1.7143005656        0.4051759035
 N         -6.3991028599       -0.5521017996        0.5845346838
 C         -7.5886209174        0.0044501942        0.7451673365
 C         -8.5544599572       -0.7459205659        1.5535911473
 C         -9.9164239182       -0.7402157072        1.2636894940
 C        -10.7927720330       -1.4725794348        2.0427741890
 C        -10.3228072388       -2.2147706135        3.1134784639
 C         -8.9666032342       -2.2362580568        3.3979761584
 C         -8.0854046721       -1.5123902758        2.6195839280
 H         -5.0361573186        3.6466287794       -1.1438971247
 H         -5.2909714236        5.7662452479       -2.3939589318
 H         -7.4805029688        6.3632384057       -3.3630697484
 H         -9.3985213680        4.8344374984       -3.1033861916
 H         -9.1442580999        2.7303324562       -1.8735400518
 H         -3.4078626471        1.0035557611       -1.5472597632
 H         -1.1679550073       -0.0313393893       -1.7570085909
 H         -2.0860309625       -4.4577171955       -1.1724417618
 H         -1.1682794705       -6.6884006694       -1.6600921683
 H          1.2476872212       -7.0900786406       -1.6710097827
 H          2.8335982029       -5.2453028630       -1.2220621355
 H          4.0027795604       -2.8536263272       -0.6493541357
 H          5.5165554315       -1.4486661750       -1.8211348620
 H          7.8644413429       -0.7352576392       -1.6941530465
 H          4.5415716472        0.8111826861        1.6785611628
 H          5.8991379398        2.4330319971        3.4196186288
 H          7.6118616903        3.7527939204        4.6193179088
 H          9.9188896146        3.8418931534        3.8032605122
 H         10.6048998633        2.6016038138        1.7868318946
 H         11.0746994652        0.2162110688        1.3239358976
 H         13.1527502600       -0.1186261641        0.0398552099
 H         13.1739484627        0.2581117550       -2.3982340379
 H         11.1163400694        0.9907362709       -3.5454770778
 H          9.0492314513        1.3671960375       -2.2553296661
 H          2.6567572222        1.1054439069        0.2518552033
 H          0.3107485388        0.4053109344        0.0827524742
 H         -2.4028370807       -3.1979228078        0.8352911628
 H         -4.6509334596       -2.1744694107        1.0024476401
 H        -10.2908909011       -0.1835441680        0.4177706913
 H        -11.8472166103       -1.4645804710        1.8108309088
 H        -11.0122853800       -2.7810531127        3.7219481131
 H         -8.5968176994       -2.8202496588        4.2280609638
 H         -7.0264736707       -1.5188695139        2.8282432728
