60
 energy: -98.124849976986 gnorm: 0.000054743418 xtb: 6.7.1 (edcfbbe)
C           -6.45599891853426       -4.14847081059922        0.47636197987748
C           -7.06452114422149       -3.33823763283446       -0.46817129274842
C           -6.65514561353617       -2.02953213781277       -0.63543202606389
C           -5.62879759933498       -1.50959521675227        0.15205373199025
N           -5.21827803251380       -0.17887886311583       -0.00881492697432
C           -6.17770525567147        0.81010952686292       -0.26567419564558
C           -5.90496931942794        1.84565930117823       -1.15880674545342
C           -6.85507530871305        2.81695722972114       -1.40760358891691
C           -8.08959240314072        2.76806779959100       -0.78089353999790
C           -8.36732481864030        1.73770306260491        0.10238624503164
C           -7.42088111854427        0.76609917127320        0.36407341396149
C           -3.87138628840146        0.15767238639572        0.08691897107383
C           -2.87835739184823       -0.72845101895050       -0.34232475848855
C           -1.55005908974854       -0.38944178291924       -0.24388154437323
C           -1.15287522501210        0.84746923675910        0.27951816228988
C            0.26305583804122        1.15781119390658        0.35511591336912
C            0.78061793463445        2.40510408047997        0.69689443200617
N            2.08143230566874        2.63139330285849        0.74826861386256
C            2.95364791593904        1.68533509590743        0.47534712889854
N            4.25254126378164        1.88581085030085        0.52443519839148
C            5.07475427774840        0.89040219880406        0.23220000640642
C            4.57223196838907       -0.38846256689647       -0.13486857456182
N            3.27324843103572       -0.62497148530546       -0.19331970759948
C            2.42325947214495        0.34568458474323        0.09547313183058
N            1.13118595167782        0.17312295812309        0.06152919902262
C            5.69635479112455       -1.26631699686228       -0.39654001910880
C            5.85521778820200       -2.57597410808624       -0.77625089287023
C            7.16533085484231       -3.07030742155477       -0.92752074646282
C            8.28460685947053       -2.30229250845878       -0.71255242301035
C            8.15618889172340       -0.94899748430520       -0.32021833721053
C            9.18286288573734       -0.01175612835935       -0.05532769210265
C            8.86762010810789        1.27247850820653        0.31857841466646
C            7.54206885691932        1.72773399709694        0.45895274513719
C            6.52241188133679        0.84293279428788        0.20911619125822
C            6.85273923498402       -0.47946391325212       -0.17611250107786
C           -2.14941031041709        1.72798788420243        0.71118397834187
C           -3.48031905741187        1.39024242757217        0.61862006056412
C           -5.02316506764283       -2.32703830814751        1.10555245866598
C           -5.43414404366452       -3.63681626449385        1.25939315514157
H           -6.77633975926707       -5.17153743777782        0.60182378883423
H           -7.85906220597426       -3.73012733617471       -1.08593718229645
H           -7.12481645405428       -1.40151731137003       -1.37832859928177
H           -4.94712987896112        1.87861089617355       -1.65709704692684
H           -6.63262132524752        3.61279092166991       -2.10307698120035
H           -8.83043663074551        3.52728330802079       -0.98027795142564
H           -9.32573288282252        1.69400971094346        0.59840667489252
H           -7.63582353881257       -0.03203515027773        1.05951131288391
H           -3.16378262044611       -1.68169741326155       -0.76226284300714
H           -0.78592289038617       -1.07170947535314       -0.58195365862156
H            0.15234284957068        3.25049458855747        0.92631175759864
H            5.00709556366270       -3.21830176830445       -0.95645984856859
H            7.28745067030427       -4.10169949000488       -1.22643123696175
H            9.26914349276425       -2.72816238746132       -0.84193768620120
H           10.21622512429358       -0.31290235304111       -0.14909129903268
H            9.66776052482150        1.97166134204778        0.51596397384912
H            7.34534178468169        2.74643553880622        0.75542377153672
H           -1.88701058714960        2.68071049669524        1.14418078938523
H           -4.23554628528238        2.07787359918633        0.97014062264933
H           -4.23383223314393       -1.92659210699117        1.72466214513812
H           -4.95839240377339       -4.25950524425292        2.00258576521716
