60
 energy: -98.124848377057 gnorm: 0.000050727558 xtb: 6.7.1 (edcfbbe)
C           -8.09870428665230        2.72314286518613        0.86797339943110
C           -6.86217470425168        2.76214176758401        1.49139206380370
C           -5.90847352098183        1.80182897706987        1.21516666955480
C           -6.17958447084715        0.78764241344000        0.29736391577256
N           -5.21723959709318       -0.19073313804259        0.01270141646842
C           -5.62380451092896       -1.51854561988611       -0.18034490595903
C           -5.02016827739244       -2.30863246365455       -1.15782720206532
C           -5.42672427631630       -3.61573459846361       -1.34304432752111
C           -6.44205861765412       -4.15156763054223       -0.56772958582524
C           -7.04864350114048       -3.36839886890878        0.40057904580110
C           -6.64371800773702       -2.06266367500931        0.59905428842753
C           -3.87133978826076        0.15145049089428       -0.07571785978699
C           -2.87598442785110       -0.74432171099282        0.32740639070499
C           -1.54851946134751       -0.40005975012751        0.23692176081403
C           -1.15444623530157        0.85193264412672       -0.25177547628728
C            0.26083223631363        1.16735118429956       -0.31820847742309
C            0.77606703058627        2.42630794396586       -0.61814111043291
N            2.07649856202511        2.65699519764768       -0.65958770022758
C            2.95041036650392        1.70447508765352       -0.41630717368800
N            4.24899622273402        1.90976955741969       -0.45421589053205
C            5.07287427109161        0.90683278025829       -0.19404112391166
C            4.57249514338800       -0.38551109922287        0.12567109045695
N            3.27395937035255       -0.62703389551966        0.17234050218361
C            2.42243236541970        0.35135880633779       -0.08381738008452
N            1.13070115747038        0.17512042185849       -0.05725952038689
C            5.69784621206572       -1.26941530271681        0.35981765860946
C            5.85852297651773       -2.59142362391427        0.69311285836869
C            7.16928313193073       -3.08767861393167        0.83183047986857
C            8.28738405796032       -2.30964729043654        0.64915867688713
C            8.15703136221010       -0.94347002696387        0.30501830356753
C            9.18230974403082        0.00531415624956        0.07859643349930
C            8.86516200899533        1.30135276381172       -0.25023410166785
C            7.53899940141753        1.75797247450033       -0.38016247337640
C            6.52062300259541        0.86219976304737       -0.16686390084446
C            6.85297390170973       -0.47231021508865        0.17217952432072
C           -2.15315368811325        1.74197846368469       -0.65804214650671
C           -3.48331785994480        1.39898250487544       -0.57373897062390
C           -7.42480926025069        0.75362962441000       -0.32901374075743
C           -8.37481507272424        1.71387691427701       -0.03983660424505
H           -8.84236458056156        3.47358529294574        1.08891951121712
H           -6.64091630762068        3.54136662997254        2.20579876321068
H           -4.94915798823549        1.82676369477230        1.71106948917482
H           -4.23574453237897       -1.88910189581698       -1.77050974072322
H           -4.95257240030820       -4.21720988994309       -2.10450041927814
H           -6.75882707434872       -5.17247157487054       -0.71752306695742
H           -7.83806734997370       -3.77937377403786        1.01246954692165
H           -7.11178488583311       -1.45577990387613        1.36030253592879
H           -3.15892734992438       -1.70945074161797        0.72103633265489
H           -0.78266382435768       -1.08999195576062        0.55494545976651
H            0.14617639068151        3.27743670080550       -0.82034035160173
H            5.01129092430289       -3.24176109335722        0.84684787187504
H            7.29287819332726       -4.12882177012419        1.09410783983124
H            9.27249422534426       -2.73742748576362        0.76736534399143
H           10.21606785802982       -0.29633616530175        0.16616378214869
H            9.66425244971063        2.00927882498061       -0.41858851380949
H            7.34093102628320        2.78622768566927       -0.64056421893195
H           -1.89294345193793        2.70679888339277       -1.06482911550197
H           -4.24027243554481        2.09446905289424       -0.90553086590007
H           -7.63861239092187       -0.02791542447212       -1.04338662026932
H           -9.33482291608531        1.67797653093477       -0.53338581501554
