  60
        -98.11888250
 C         -8.1031138795        2.7175696846        0.8721995157
 C         -6.8649754300        2.7604419816        1.4921147304
 C         -5.9091657594        1.8030008376        1.2133549988
 C         -6.1797635824        0.7878872499        0.2963750293
 N         -5.2160492455       -0.1885643385        0.0101623601
 C         -5.6199426722       -1.5173930956       -0.1808228771
 C         -5.0123904551       -2.3088144943       -1.1549299571
 C         -5.4162015762       -3.6170016353       -1.3382032852
 C         -6.4331138088       -4.1526346209       -0.5647102293
 C         -7.0437325220       -3.3681889654        0.4000181537
 C         -6.6411607901       -2.0615522047        0.5969942993
 C         -3.8705442019        0.1555449962       -0.0770782756
 C         -2.8742397671       -0.7389605722        0.3273892003
 C         -1.5474022855       -0.3938663404        0.2364858846
 C         -1.1539742772        0.8583717885       -0.2538130644
 C          0.2600871743        1.1719785334       -0.3215036352
 C          0.7780546643        2.4308367747       -0.6229474027
 N          2.0770888491        2.6601364259       -0.6635744616
 C          2.9516228008        1.7072936811       -0.4196160825
 N          4.2491730583        1.9109143118       -0.4557493030
 C          5.0733106786        0.9080883681       -0.1955917305
 C          4.5699076016       -0.3854800026        0.1213403730
 N          3.2727154643       -0.6254840968        0.1668460940
 C          2.4207589832        0.3538372537       -0.0877944723
 N          1.1301883067        0.1794871041       -0.0603137318
 C          5.6941181849       -1.2707953710        0.3555244950
 C          5.8520591697       -2.5938167442        0.6862352759
 C          7.1618532613       -3.0918568097        0.8270848840
 C          8.2812119599       -2.3144368066        0.6486603082
 C          8.1533271638       -0.9473468458        0.3070982054
 C          9.1804693657        0.0007079841        0.0853175717
 C          8.8653397966        1.2976184416       -0.2420575260
 C          7.5402794831        1.7562203616       -0.3748402258
 C          6.5196878851        0.8614402626       -0.1655558059
 C          6.8503607433       -0.4745402827        0.1718386871
 C         -2.1538932381        1.7478102990       -0.6599900775
 C         -3.4835540058        1.4034685456       -0.5755259991
 C         -7.4263282127        0.7505744620       -0.3271987538
 C         -8.3785372960        1.7076968925       -0.0351771267
 H         -8.8485608384        3.4654895314        1.0954763941
 H         -6.6441537549        3.5402929871        2.2059102800
 H         -4.9487873518        1.8306797295        1.7068864862
 H         -4.2268948715       -1.8896398541       -1.7665075716
 H         -4.9387320066       -4.2194780045       -2.0968488036
 H         -6.7481030045       -5.1742191953       -0.7132808042
 H         -7.8347001439       -3.7787412551        1.0101464824
 H         -7.1123672835       -1.4538861465        1.3557023785
 H         -3.1564709243       -1.7036613366        0.7225923566
 H         -0.7802975245       -1.0820869370        0.5552517340
 H          0.1483631262        3.2822875557       -0.8259674839
 H          5.0033797975       -3.2432590393        0.8364640951
 H          7.2836671816       -4.1339182852        1.0871615565
 H          9.2655287801       -2.7435689231        0.7684306763
 H         10.2135679112       -0.3022406092        0.1756858143
 H          9.6656279696        2.0049833049       -0.4066414696
 H          7.3441440352        2.7851489358       -0.6340635925
 H         -1.8943568334        2.7125710985       -1.0675264086
 H         -4.2412563146        2.0975347996       -0.9085905557
 H         -7.6395207280       -0.0311691675       -1.0415347147
 H         -9.3394437840        1.6693100000       -0.5266589655
