60
 energy: -98.142477412407 gnorm: 0.000028553370 xtb: 6.7.1 (edcfbbe)
C           -6.47634854440654       -4.15067131184141        0.41456854075831
C           -7.09483795727328       -3.31254075068217       -0.49858127758872
C           -6.67413058944158       -2.00470926813226       -0.64413279568401
C           -5.62617055587939       -1.51516395761552        0.13375523463429
N           -5.20569951604877       -0.18374614372510       -0.00342284063855
C           -6.16604251304844        0.81795352678875       -0.20773125303164
C           -5.91728765147988        1.86687747006625       -1.09187135034271
C           -6.86927528047866        2.84788667942524       -1.29087634761799
C           -8.08161942240655        2.79489244210007       -0.62263448204712
C           -8.33553463538632        1.75089935941332        0.25173247132222
C           -7.38674925543114        0.76932886022964        0.46361375659881
C           -3.85588424384994        0.13855645184196        0.05877482872019
C           -2.88296984012854       -0.75389835319830       -0.40545165979950
C           -1.55019451367063       -0.42520139789985       -0.34426399298780
C           -1.13064672964898        0.80546533141970        0.17327000863405
C            0.29408821872613        1.10882375583417        0.20256241023512
C            0.80102149896364        2.42339556669831        0.39437985921357
N            2.07377639913628        2.69553365729201        0.43699282607754
C            2.93428901722266        1.67307170150863        0.27820928546200
N            4.25417739257349        1.95299436924238        0.33607670510060
C            5.04097052842342        0.93097607512805        0.14814618649034
C            4.54388536825224       -0.40971452350473       -0.10688926668522
N            3.27585763522861       -0.69899445555551       -0.15952362774963
C            2.44121494493324        0.35103074015584        0.04095822249811
N            1.12961043945680        0.10096854318501        0.01509130205966
C            5.69111381082898       -1.28977776145526       -0.27364691331434
C            5.86740747771220       -2.62632818327967       -0.52952459271814
C            7.18310098939995       -3.11800027557109       -0.62200115649557
C            8.29052810109788       -2.31812749012676       -0.46722836994136
C            8.14454011169534       -0.93730862724226       -0.20303585017916
C            9.15952165280681        0.02886965769936       -0.01722007957912
C            8.83353350167613        1.34083315409711        0.23285168575407
C            7.50373797241735        1.79459707567166        0.31767937998035
C            6.49430169330746        0.88155856005678        0.14229509911269
C            6.83143201106615       -0.46821145162674       -0.11488779961638
C           -2.10352431129318        1.68992666599152        0.64557460143015
C           -3.43960217322406        1.36279101789064        0.59141592487519
C           -5.01054027668771       -2.36010073284278        1.05599866860299
C           -5.43320794472556       -3.66862951508727        1.18824450165189
H           -6.80569475321325       -5.17278386739931        0.52313887733200
H           -7.90621381755784       -3.68138377784351       -1.10849744770448
H           -7.15175663074459       -1.35424735883745       -1.36221094220869
H           -4.97724985021275        1.90256093681557       -1.62280486667530
H           -6.66603819384407        3.65434184871046       -1.97987384469737
H           -8.82412516130755        3.56157658374368       -0.78334178228490
H           -9.27669216261728        1.70387487098886        0.77933492744991
H           -7.58264187738947       -0.04020254033289        1.15143031154760
H           -3.18934534586674       -1.70093868149071       -0.82444335769852
H           -0.79724747810387       -1.10667594172026       -0.70713302156542
H            0.14054344719088        3.27396902434065        0.49456162760920
H            5.02496932759626       -3.28787443221888       -0.65737340759118
H            7.32141143602241       -4.17063981798547       -0.82356259963466
H            9.28150294512613       -2.74153791924062       -0.54702250382121
H           10.19581063406756       -0.27206045256994       -0.07349169762060
H            9.62773586597208        2.06049680152651        0.37108688037941
H            7.29083603076519        2.83348181493629        0.51527470749683
H           -1.81879179898881        2.63164466817699        1.08895411762797
H           -4.17832000419968        2.05086982643591        0.97553209232898
H           -4.20453318683396       -1.98243633905535        1.66783825367659
H           -4.94968378598371       -4.31342999796980        1.90704340416062
