  113
       -164.73070575
 C          2.3916071345       -0.1061964947       -5.0714316078
 C          1.7396538146        0.3896477545       -3.8205024911
 C          1.2949662519        1.7064766808       -3.7144484889
 C          0.7073466626        2.1655940550       -2.5579562411
 C          0.5602463910        1.3228766352       -1.4494118356
 C          1.0034363030       -0.0059483919       -1.5435650371
 C          1.5714239340       -0.4474329715       -2.7284161030
 C          0.7829049830       -0.9843151153       -0.4262699055
 C         -0.4503547948       -1.8349314731       -0.7181807315
 C         -1.5596670252       -1.2477183832       -1.2999875492
 C         -2.7683909000       -1.9149178891       -1.3640523382
 C         -2.8927182708       -3.1903252779       -0.8038741746
 C         -4.2195755711       -3.8131676549       -0.6654153240
 C         -4.4502549935       -5.1092354256       -1.1099870434
 C         -5.7035068389       -5.6829111416       -0.9977088777
 C         -6.7440409325       -4.9623907440       -0.4355992285
 C         -6.5241927257       -3.6748822463        0.0198487108
 C         -5.2674917722       -3.0888382946       -0.0777651888
 C         -5.0449765174       -1.7301219635        0.4523321528
 C         -3.9952738179       -1.4704832573        1.3314851490
 C         -3.7653735457       -0.1887784659        1.7927895625
 C         -4.5830536813        0.8543938139        1.3887629557
 C         -5.6439232559        0.6031446276        0.5354402191
 C         -5.8764188117       -0.6803722036        0.0737928763
 C         -1.7694926176       -3.8213409990       -0.3129739047
 C         -0.5292716612       -3.1592016203       -0.2668845757
 C          0.6150268681       -3.8914292472        0.2401735066
 O          0.5158163834       -5.0628035395        0.6794808141
 C          1.8853004936       -3.2053177665        0.1633344936
 C          3.0606749386       -3.9171669738        0.4801650836
 C          4.2871814613       -3.3108513081        0.4255059117
 C          4.4136094881       -1.9656969989        0.0501305408
 C          5.7206233908       -1.3145605583       -0.0135090429
 C          6.8206602045       -2.0283472052       -0.4965341442
 C          8.0651162458       -1.4444013318       -0.6135339831
 C          8.2430235840       -0.1176128334       -0.2542280446
 C          7.1673438284        0.6054971761        0.2270513180
 C          5.9104420958        0.0273791250        0.3633914456
 C          4.8288562913        0.8467622926        0.9411780244
 C          4.1186159948        0.4179345176        2.0602354991
 C          3.1210976965        1.2056510291        2.6007683892
 C          2.8129733660        2.4315036151        2.0329928297
 C          3.5187941429        2.8695714497        0.9261558338
 C          4.5236599890        2.0871611073        0.3876712910
 C          3.2451236761       -1.2675143037       -0.2701315253
 C          2.0020377989       -1.8561846114       -0.2053327555
 C          0.4213596969       -0.2893208816        0.8690522265
 C          0.4340273159       -0.9916070806        2.0646004398
 C         -0.0020135906       -0.4294920636        3.2541777271
 C         -0.0035379582       -1.2259254698        4.5198060520
 C         -0.4642040456        0.8860476527        3.2351605519
 C         -0.4800009535        1.6087274752        2.0651361718
 C         -0.0402015175        1.0350593857        0.8659053673
 N         -0.0380480714        1.7798579364       -0.2934073677
 C         -0.7533975534        3.0095987917       -0.3026402741
 C         -2.1370389397        2.9836794968       -0.3916252933
 C         -2.8544365645        4.1668226014       -0.3818935009
 C         -2.2169639535        5.3983560778       -0.2822250441
 C         -2.9693229035        6.7188023913       -0.2572140101
 C         -4.4845382979        6.5365263103       -0.3777313659
 C         -2.4962621601        7.5872665264       -1.4314551192
 C         -2.6757433269        7.4323713698        1.0703468188
 C         -0.8258287198        5.4012072006       -0.1934269156
 C         -0.0970117108        4.2282896825       -0.2023750348
 H          2.0356456735        0.4416760331       -5.9408274489
 H          3.4716857250        0.0307461009       -5.0044048667
 H          2.1980551017       -1.1666351265       -5.2132929412
 H          1.4047617516        2.3763781565       -4.5546284289
 H          0.3531910681        3.1834412422       -2.5055875196
 H          1.8875248187       -1.4784336806       -2.7928783615
 H         -1.4919137561       -0.2449673470       -1.6976259675
 H         -3.6226289712       -1.4387003365       -1.8204133945
 H         -3.6376233902       -5.6605078942       -1.5601189601
 H         -5.8694711249       -6.6903207389       -1.3500682637
 H         -7.7251188837       -5.4054140050       -0.3459380658
 H         -7.3292305563       -3.1189698941        0.4796909722
 H         -3.3573797933       -2.2797823565        1.6540074140
 H         -2.9398225585       -0.0005322587        2.4636479846
 H         -4.3951999355        1.8577818281        1.7437880910
 H         -6.2911733892        1.4107083573        0.2232373771
 H         -6.6947306284       -0.8700513242       -0.6066510088
 H         -1.8213360584       -4.8181946036        0.0995788817
 H          2.9560882704       -4.9505744628        0.7743389769
 H          5.1674724196       -3.8728888962        0.7027508713
 H          6.6820899867       -3.0530871547       -0.8090235779
 H          8.8971206380       -2.0198890774       -0.9929629849
 H          9.2129559949        0.3484524790       -0.3458488734
 H          7.3025267345        1.6349905321        0.5291298197
 H          4.3575257856       -0.5366595248        2.5054181871
 H          2.5783743869        0.8649979060        3.4699748227
 H          2.0299697876        3.0425468441        2.4582624394
 H          3.2967901716        3.8305789725        0.4824190599
 H          5.0675078880        2.4273851489       -0.4826621358
 H          3.3128328120       -0.2377983203       -0.5881290370
 H          0.7826464509       -2.0125480671        2.0688297855
 H          0.7578153789       -2.0012602540        4.4893514084
 H          0.1683805438       -0.5876033404        5.3840766664
 H         -0.9715096033       -1.7122165751        4.6494121501
 H         -0.8073695151        1.3465483699        4.1505595854
 H         -0.8284140485        2.6302309867        2.0705283806
 H         -2.6497872457        2.0346642848       -0.4574051750
 H         -3.9275437924        4.1062955095       -0.4527010584
 H         -4.7476623802        6.0501699585       -1.3141892298
 H         -4.9678480176        7.5110060517       -0.3591203534
 H         -4.8773299664        5.9531623645        0.4518290435
 H         -1.4354251869        7.8107482121       -1.3608185099
 H         -2.6759560214        7.0753365730       -2.3746423583
 H         -3.0408881136        8.5286288706       -1.4413042712
 H         -2.9874086406        6.8121837177        1.9083425067
 H         -1.6166996577        7.6481967089        1.1809429696
 H         -3.2205702412        8.3725049315        1.1166319197
 H         -0.2911270309        6.3348821971       -0.1102455215
 H          0.9794452314        4.2472320510       -0.1232711258
