  86
       -129.55558649
 C          2.9661988241        3.8092990080       -2.3819395623
 O          3.1948817889        2.6024899413       -1.6962123112
 C          2.2214457173        1.6816828928       -1.5342589593
 C          0.9144781652        1.7857518973       -2.0168520293
 C          0.3577532474        2.9632209022       -2.5482481880
 N         -0.2078461143        3.8842825334       -2.9435657150
 C          0.0317912166        0.6687128550       -1.9738249442
 C         -1.3451602893        0.7901767327       -2.5451960910
 C          0.4880617801       -0.5178033173       -1.4802011544
 C          1.7803385459       -0.6516615845       -0.9451751329
 C          2.2825293095       -1.9220054197       -0.5449996495
 Se         1.2075282081       -3.4571642220       -0.4791026085
 Se        -1.6974474929       -3.7062219562        0.5501790776
 C         -2.4431746627       -2.0057355107        0.2753213629
 C         -3.5756263820       -1.8505045400       -0.5368901323
 C         -4.1271289353       -2.9750316971       -1.3483156763
 N         -4.2434422756       -0.7120658511       -0.5742393372
 C         -3.8169207773        0.3690820867        0.0716973896
 N         -4.7226515063        1.3550202596        0.2196566680
 C         -6.0001701864        1.1996329551       -0.4521260987
 C         -6.7887095141        2.4979144900       -0.3692153212
 C         -7.1470848097        2.8145258915        1.0869454861
 C         -6.0559081632        2.2874205931        2.0246893809
 C         -4.7001822691        2.2917883801        1.3202955093
 C         -2.4682375365        0.4252486431        0.5677289976
 C         -1.7023908649        1.6117284349        0.7052928082
 O         -2.2825391089        2.7217753991        0.1960529428
 C         -1.6677254366        3.9842346349        0.2939845964
 C         -0.4248307838        1.5383796629        1.2635426730
 C          0.4781585194        2.6103997958        1.3290183268
 N          1.3084613980        3.4054891048        1.4018702619
 C          0.0824278317        0.2922089547        1.7368589431
 C          1.3946946229        0.2451543747        2.4521711635
 C         -0.6068583615       -0.8513933839        1.4659095874
 C         -1.8411869037       -0.8273509337        0.7944841484
 C          3.6520263510       -2.0183326128       -0.2590085766
 C          4.3241323345       -3.3316467355       -0.0334740467
 N          4.4069254174       -0.9464069895       -0.1286853149
 C          3.9297735757        0.2857484759       -0.2942456670
 N          4.7621363323        1.2828665373        0.0832939357
 C          6.1656985609        0.9924352582        0.2823213450
 C          6.5131968826        0.8444421898        1.7630483134
 C          6.1177570694        2.1183280997        2.5012675647
 C          4.6397005577        2.3935635568        2.2560797711
 C          4.3388876126        2.4890052073        0.7548456136
 C          2.6330122965        0.4827843920       -0.8880181653
 H          2.2817093185        4.4598116622       -1.8317139681
 H          3.9419929394        4.2886362173       -2.4508512160
 H          2.5760642516        3.6376996310       -3.3887801390
 H         -1.8746250957        1.6376820404       -2.1154501321
 H         -1.9136111452       -0.1155035209       -2.3545342143
 H         -1.2935008672        0.9524930703       -3.6223382247
 H         -0.1440698123       -1.3927399164       -1.5098153957
 H         -3.3505647118       -3.3918010934       -1.9882191049
 H         -4.4716220665       -3.7725398333       -0.6905835932
 H         -4.9561201947       -2.6214814807       -1.9535253407
 H         -6.5713594118        0.3788621170       -0.0026975692
 H         -5.7974876594        0.9253843613       -1.4893507765
 H         -7.6920613872        2.4107545924       -0.9724502036
 H         -6.1847163921        3.3011723951       -0.7937472515
 H         -8.1008870679        2.3544153723        1.3476781477
 H         -7.2593816816        3.8928682120        1.2072983965
 H         -6.2827718161        1.2656909236        2.3341833579
 H         -5.9956236657        2.8994459632        2.9249521358
 H         -4.4815519689        3.3006982983        0.9591449684
 H         -3.9169825078        1.9956753257        2.0201471091
 H         -2.3957944934        4.6934624717       -0.0987868287
 H         -0.7628632450        4.0401338770       -0.3130991699
 H         -1.4320772264        4.2408333056        1.3303425910
 H          1.5400654875       -0.7331309025        2.9041169614
 H          1.4442018175        1.0097383620        3.2261352532
 H          2.2090414077        0.4244049084        1.7526461357
 H         -0.1855359392       -1.8101680004        1.7266162063
 H          5.3769104452       -3.1752318569        0.1792902192
 H          3.8561168429       -3.8526342159        0.8009136087
 H          4.2179400256       -3.9623057497       -0.9146600231
 H          6.7325865104        1.8291703427       -0.1411472606
 H          6.4066704130        0.0784745007       -0.2581145934
 H          5.9650249948       -0.0069540690        2.1686224268
 H          7.5806513275        0.6493320007        1.8687802746
 H          6.7151719433        2.9560260166        2.1342613647
 H          6.3077188983        2.0126328111        3.5705760698
 H          4.0488865099        1.5837618168        2.6859558768
 H          4.3308362572        3.3261170572        2.7284321251
 H          4.8827650685        3.3364948785        0.3273928422
 H          3.2720150100        2.6556025839        0.6313120099
