  48
        -80.89111872
 N          1.5576006215       -6.6998227100       -0.0766026002
 C          1.1557273228       -5.6219426026       -0.0480444223
 C          0.6618442586       -4.3074936380       -0.0204767026
 C          1.0417994273       -3.4297308040        1.0060055532
 C          0.5632856326       -2.1426933591        1.0261318122
 C         -0.3193089110       -1.7013726536        0.0280299274
 N         -0.7862608393       -0.3911022920        0.0464622417
 C          0.0287247149        0.7657510957        0.1463081576
 C          1.4272968964        0.8471406404        0.0679641071
 C          2.0266102556        2.0857542255        0.4454415174
 C          3.3799855269        2.2619977157        0.4091956037
 C          4.1983922805        1.2150994349       -0.0284654879
 Br         6.0816662946        1.4481511740       -0.0675732268
 C          3.6443266136        0.0091203662       -0.4593298235
 C          2.2883899437       -0.1775598598       -0.4158373074
 N         -0.7350742948        1.8764078355        0.2234503028
 C         -1.9882631185        1.4914318606        0.0930777922
 C         -3.1464722332        2.3157649990        0.0135878335
 C         -3.0297555285        3.7082465178        0.0062606802
 C         -4.1504044727        4.4997415641       -0.1350054809
 C         -5.3906799226        3.8954364477       -0.2823897142
 C         -5.5160968790        2.5166541857       -0.2655783554
 C         -4.4059685141        1.6835199177       -0.1024246883
 C         -4.5070772529        0.2314654558       -0.0202491330
 C         -5.7430001989       -0.4072166495        0.0253655760
 C         -5.8627291781       -1.7788265510        0.1613481629
 C         -4.7208570781       -2.5678076251        0.2895915072
 C         -3.4821305944       -1.9867822755        0.2399490543
 C         -3.3285020145       -0.5892191534        0.0591653922
 C         -2.0858989128        0.0557216380        0.0085652534
 C         -0.7003139844       -2.5798302454       -0.9975196189
 C         -0.2140518686       -3.8637277016       -1.0243263965
 H          1.7095838389       -3.7770528544        1.7799110964
 H          0.8512071556       -1.4625518498        1.8135706523
 H          1.3733960961        2.8748055013        0.7801304021
 H          3.8245135553        3.1964369072        0.7153122173
 H          4.2876583046       -0.7707218680       -0.8378580806
 H          1.8782755790       -1.0923791045       -0.8077566076
 H         -2.0428989595        4.1332821110        0.1028101107
 H         -4.0639223559        5.5753083094       -0.1407185575
 H         -6.2737333489        4.5039219503       -0.4103136571
 H         -6.5017162717        2.0971933451       -0.3894870062
 H         -6.6497954094        0.1733504630       -0.0298637130
 H         -6.8410218093       -2.2331424258        0.1890060076
 H         -4.8117702827       -3.6337421709        0.4337686048
 H         -2.6055749162       -2.5990758779        0.3690803891
 H         -1.3648159477       -2.2292779108       -1.7736389712
 H         -0.4924173723       -4.5376579888       -1.8205570154
