  58
        -86.51510839
 C         -1.1170546777        2.9279924498       -1.2106100743
 C         -1.6036023935        2.0802814766       -0.0050870555
 C         -1.2788668961        2.7397658585        1.3578887836
 C         -3.1147191100        2.0358901886       -0.0657331293
 C         -3.8275324260        3.2252040227       -0.1245464505
 C         -5.2099330154        3.2454310569       -0.1509007889
 C         -5.9127123045        2.0477852897       -0.1163194729
 C         -5.2337738041        0.8536735337       -0.0618335671
 C         -3.8292760502        0.8300374690       -0.0368978182
 N         -3.1554118387       -0.3662715612        0.0076783972
 C         -3.9268208254       -1.5668197749        0.0371609674
 C         -4.3079800459       -2.1724127406       -1.1530284574
 C         -5.0680917601       -3.3282551184       -1.1189731857
 C         -5.4467053273       -3.8764735587        0.0955503270
 C         -5.0648991360       -3.2696906420        1.2807168743
 C         -4.3047578068       -2.1134236598        1.2562548531
 C         -1.7848595275       -0.4620758791        0.0040387313
 C         -1.1997234214       -1.7362364293        0.0230333213
 C          0.1551514480       -1.8887444649        0.0185925546
 C          1.0191447982       -0.7552144893        0.0011835122
 C          2.3880337436       -0.9284791931        0.0085011223
 C          3.3040086588        0.1678473308        0.0147863965
 C          4.7194330349       -0.0230943126        0.0077128266
 C          5.6119428883        0.9902493087        0.4408385462
 C          6.9657828871        0.8064176912        0.4385798428
 C          7.5215720109       -0.4076053030       -0.0129612172
 C          8.9051094500       -0.5980774131       -0.0207191492
 N         10.0486117935       -0.7523888170       -0.0281699715
 C          6.6536006457       -1.4257197373       -0.4539189993
 C          5.2999945698       -1.2393636430       -0.4342388256
 C          2.7183087204        1.4474784199        0.0126395752
 C          1.3673556696        1.6410941967       -0.0139008903
 C          0.4297471396        0.5537945248       -0.0132931262
 C         -0.9585593292        0.7096976354       -0.0199298629
 H         -0.7683127007        3.9071780176       -0.8923934304
 H         -1.9328828144        3.0746433243       -1.9154871970
 H         -0.3154491717        2.4278906226       -1.7448909574
 H         -0.2161383779        2.7193576371        1.5729824930
 H         -1.6257761850        3.7693692449        1.3776748253
 H         -1.7901189060        2.1939517740        2.1496757290
 H         -3.2907353749        4.1609461935       -0.1556143810
 H         -5.7362703779        4.1857756690       -0.1964254015
 H         -6.9916521665        2.0494824808       -0.1324502226
 H         -5.7830137235       -0.0745983394       -0.0374398534
 H         -4.0051990359       -1.7345175144       -2.0926938309
 H         -5.3640884024       -3.7999290770       -2.0435550003
 H         -6.0399349463       -4.7777290529        0.1183419853
 H         -5.3589615109       -3.6952281415        2.2280160521
 H         -4.0001668120       -1.6303411229        2.1729120134
 H         -1.8330592396       -2.6093731039        0.0411032998
 H          0.5933688181       -2.8744398956        0.0323432667
 H          2.7684386427       -1.9364088050        0.0526712621
 H          5.2160101233        1.9192248151        0.8218959577
 H          7.6273897410        1.5862223442        0.7876700384
 H          7.0758643337       -2.3542857000       -0.8108313241
 H          4.6619631284       -2.0263807876       -0.8046306855
 H          3.3549356749        2.3195970571       -0.0125421844
 H          1.0173325679        2.6563081725       -0.0479012296
