58
 energy: -86.553657103779 gnorm: 0.000066231443 xtb: 6.7.1 (edcfbbe)
C           -1.29705607021885        2.67440137978906       -1.49235184029671
C           -1.60975918022427        2.07650278962045       -0.09646639213211
C           -1.11904632609094        2.98234116091222        1.06539350717258
C           -3.12030578424901        2.02859360396396       -0.02656776274095
C           -3.83801287889215        3.21739550510365       -0.01193828344316
C           -5.22028398164088        3.23260420379166        0.01756184789073
C           -5.91938222934867        2.03166265099275        0.03059688902391
C           -5.23590304136221        0.83871829594158        0.02020503508362
C           -3.83102216247170        0.81987034094666       -0.00706831334913
N           -3.15247242148847       -0.37510075592752       -0.00578115438979
C           -3.92126320782204       -1.57953250349172        0.01736019156431
C           -4.30460278927389       -2.17567612358533       -1.17701066392715
C           -5.06734242285544       -3.33065532944910       -1.15022031243389
C           -5.44544478863701       -3.88758276846822        0.06069358343910
C           -5.06020287008099       -3.29038632806212        1.25016519454491
C           -4.29753554150759       -2.13547221748451        1.23358042250965
C           -1.78208832952164       -0.46275869828363        0.00142134242902
C           -1.19183238226397       -1.73766086735611        0.04090572760585
C            0.16160813776343       -1.88643565247345        0.05148819020295
C            1.02269556163926       -0.75114990106943        0.02113729104381
C            2.39360920871489       -0.92121174819821        0.03500476394824
C            3.30726429432624        0.17337203666816        0.01471631901129
C            4.72361969696071       -0.01223555751172        0.02187766840290
C            5.61401551221087        1.02311498144289        0.41115544732370
C            6.96728837419224        0.84416559603041        0.42889088448578
C            7.53477300189573       -0.39041193503189        0.04258421935057
C            8.91428994337618       -0.57660462997724        0.05676738662864
N           10.06114422904729       -0.73012290404384        0.06787747332083
C            6.66776909084293       -1.43086358322149       -0.35635750735700
C            5.31485839542551       -1.24662964279606       -0.35732521856711
C            2.71562664930454        1.45340010856819       -0.02625844189776
C            1.36566651035014        1.64330470423019       -0.05264547745909
C            0.42997830125175        0.55555064591233       -0.01991948738958
C           -0.96112389954986        0.70894047830287       -0.02528924096135
H           -1.64735184873439        3.70101423694931       -1.55337291688814
H           -1.81271806246633        2.09303505429943       -2.25565390223635
H           -0.23603927831169        2.64799387347772       -1.71553049292053
H           -1.93409804459778        3.17037525882891        1.76134947225310
H           -0.32066388171191        2.50587119423332        1.62611714947349
H           -0.76317862653609        3.94082726022334        0.69670500249457
H           -3.30544437725966        4.15559906876602       -0.01910025449114
H           -5.75091874580924        4.17218839043848        0.02858253625118
H           -6.99873507024709        2.03027082228412        0.05046102261545
H           -5.78178561177350       -0.09098973723188        0.03303452567338
H           -4.00473865984416       -1.73302200235375       -2.11524197963897
H           -5.36653362435103       -3.79457286946229       -2.07793252755915
H           -6.04104094883314       -4.78772212692469        0.07764246412376
H           -5.35383693007137       -3.72277246958335        2.19471921025661
H           -3.99182851230476       -1.66144100433021        2.15444128516899
H           -1.82312473560038       -2.61181381994596        0.06383373304894
H            0.60327396544643       -2.87086496963549        0.08200973241336
H            2.77442834362184       -1.92875229575633        0.09852291866735
H            5.21629859604961        1.97034146916869        0.74229172722491
H            7.62432792045543        1.64289191812471        0.74567368763791
H            7.09520662070623       -2.37532501756450       -0.66535498847826
H            4.68457083998716       -2.05501353887155       -0.69491091446459
H            3.35088445724185        2.32515286261994       -0.08018755045202
H            1.01378816654365        2.65723524646298       -0.10589579249192
