58
 energy: -86.553658973932 gnorm: 0.000103636804 xtb: 6.7.1 (edcfbbe)
C           -1.11069693049601        2.93913012623101       -1.19549833266508
C           -1.60521832724395        2.08193417752873        0.00146466663660
C           -1.29048462165262        2.73383253019305        1.37215732715570
C           -3.11583792357361        2.03552750702271       -0.06834445172157
C           -3.83018546136536        3.22497776953296       -0.12761019073268
C           -5.21228541129219        3.24294029834649       -0.16256269784435
C           -5.91475434400442        2.04421514506425       -0.13545785189186
C           -5.23464253218335        0.85058231652899       -0.07955286891984
C           -3.82994595329701        0.82888614494305       -0.04605866457851
N           -3.15487252813714       -0.36716282907857        0.00101879509083
C           -3.92689255156761       -1.56921082824377        0.03430741191308
C           -4.31240905670715       -2.17692497100125       -1.15385973985297
C           -5.07761879326322       -3.32968324316642       -1.11461392298412
C           -5.45635765706291       -3.87307219664801        0.10242340914352
C           -5.06924039506572       -3.26435702715996        1.28525800772199
C           -4.30365969080537       -2.11140742426203        1.25620313856632
C           -1.78473228517599       -0.45873526698739        0.00140951889014
C           -1.19791581547083       -1.73581771374529        0.01733186887736
C            0.15508683406610       -1.88862517043280        0.01548922787577
C            1.01934095770313       -0.75537440351810        0.00334298824282
C            2.38979835381858       -0.92937555855584        0.01209278556872
C            3.30653368835109        0.16292527981361        0.01878617818336
C            4.72232734790718       -0.02587259809701        0.00806329474419
C            5.61955427173497        0.99766525565474        0.41298910643726
C            6.97268748236162        0.81747289417218        0.40639942407716
C            7.53344536753077       -0.40681234023360       -0.02049857174530
C            8.91299978281723       -0.59262692433957       -0.03419340227555
N           10.05989049072557       -0.74564978471081       -0.04708440610933
C            6.65954211822661       -1.43647200874562       -0.43226434964303
C            5.30697814675826       -1.25116029869262       -0.40949710487014
C            2.71790594767932        1.44513257679369        0.02031499154067
C            1.36855968213477        1.63924808113362       -0.00311519922001
C            0.43005538129793        0.55351013779548       -0.00757566829511
C           -0.96057328489873        0.71080028823180       -0.01634310044161
H           -0.74051389480919        3.90582832550959       -0.86417465200464
H           -1.92787673576703        3.11265087501733       -1.89266451359310
H           -0.32260965885942        2.43199527249122       -1.74392902986852
H           -0.22870366726633        2.71605988499516        1.59292286383542
H           -1.64077950411153        3.76200413314146        1.39391509331901
H           -1.80411861891387        2.18262769702470        2.15890679773522
H           -3.29496982974336        4.16139775210330       -0.15242325798616
H           -5.74013991124580        4.18300627406841       -0.20902286480682
H           -6.99402005011306        2.04501273117798       -0.15954583779004
H           -5.78310981557320       -0.07750890507949       -0.06087683462790
H           -4.01174947615111       -1.74414407191548       -2.09644021495006
H           -5.37830847223543       -3.80265081255639       -2.03725995504637
H           -6.05394015014150       -4.77165882071587        0.12904181798476
H           -5.36337190624106       -3.68615415913725        2.23442130248358
H           -3.99636367383093       -1.62880842481614        2.17203828382547
H           -1.83167438164582       -2.60838990831358        0.03010044474138
H            0.59400092112657       -2.87470492722100        0.02651292199942
H            2.76786070420365       -1.93922297208926        0.05109067516172
H            5.22803522211758        1.93608699552734        0.77500741921143
H            7.63492171946022        1.60745119728320        0.73414429723346
H            7.08143405419139       -2.37349168990818       -0.77026050043679
H            4.67125505221373       -2.05052833990049       -0.75817032177151
H            3.35503248644660        2.31680098441067       -0.00403684002596
H            1.01943618752918        2.65502630576796       -0.03163163811939
