  58
        -86.59578737
 C         -1.2902640199        2.6740131219       -1.5071742899
 C         -1.6100842939        2.0886009921       -0.1129364383
 C         -1.1185454065        2.9951559745        1.0452172859
 C         -3.1263665797        2.0348514370       -0.0401339984
 C         -3.8423361569        3.2242531189       -0.0429539124
 C         -5.2247071369        3.2431853961       -0.0189679472
 C         -5.9188513124        2.0464568716        0.0059944874
 C         -5.2302423673        0.8514618984        0.0139955006
 C         -3.8329941950        0.8332673631       -0.0073560467
 N         -3.1501514794       -0.3704168494        0.0046801213
 C         -3.9094238379       -1.5754776816        0.0375211107
 C         -4.2435959352       -2.2146229678       -1.1497327476
 C         -4.9908818109       -3.3788718523       -1.1171098959
 C         -5.4065433026       -3.9041859961        0.0953745563
 C         -5.0751558826       -3.2650834787        1.2791375189
 C         -4.3274789167       -2.1011818876        1.2539923296
 C         -1.7700103654       -0.4307905751        0.0274484231
 C         -1.1800371229       -1.7162104753        0.1012071377
 C          0.1681327816       -1.8691470310        0.1174130064
 C          1.0152752468       -0.7448238644        0.0599265588
 C          2.4092690197       -0.9177246172        0.0597977149
 C          3.2729620403        0.1505151271        0.0096189229
 C          4.7262260030       -0.0366415223        0.0111132547
 C          5.5578649453        0.8360191764        0.7159209274
 C          6.9252451568        0.6633189480        0.7210636842
 C          7.4942274394       -0.3953378184        0.0101327115
 C          8.8934671887       -0.5753010826        0.0071728528
 N         10.0318078714       -0.7228140230        0.0044469675
 C          6.6737547724       -1.2750095040       -0.6994010467
 C          5.3078580538       -1.0929749709       -0.6936838491
 C          2.7106307063        1.4420692685       -0.0438109994
 C          1.3597080735        1.6348645047       -0.0536893793
 C          0.4395027218        0.5565746644       -0.0025990896
 C         -0.9758597967        0.7075015142       -0.0159884028
 H         -1.6299173430        3.7041658161       -1.5765918286
 H         -1.8156043650        2.0937447626       -2.2644269390
 H         -0.2311618822        2.6368319257       -1.7375887491
 H         -1.9485538328        3.2408653438        1.7040573464
 H         -0.3688967613        2.4913532343        1.6480507430
 H         -0.7003066660        3.9276450865        0.6743394983
 H         -3.3078373323        4.1618859395       -0.0640431787
 H         -5.7536688608        4.1838084939       -0.0241534150
 H         -6.9984011133        2.0404138354        0.0197661122
 H         -5.7768847538       -0.0786262724        0.0349575092
 H         -3.9133069733       -1.7942451577       -2.0883828719
 H         -5.2493172286       -3.8756186045       -2.0403288455
 H         -5.9899882253       -4.8121494203        0.1179607834
 H         -5.4001585619       -3.6727402435        2.2245207406
 H         -4.0648461582       -1.5911722713        2.1688781420
 H         -1.8200049819       -2.5834252029        0.1443466849
 H          0.6066584953       -2.8548540535        0.1715058619
 H          2.7938154250       -1.9257616322        0.1286864572
 H          5.1224717865        1.6453637813        1.2829854904
 H          7.5632254974        1.3388622818        1.2723714774
 H          7.1184997906       -2.0898221871       -1.2518216960
 H          4.6783987255       -1.7646347033       -1.2584993279
 H          3.3672721836        2.2980023630       -0.1055890246
 H          1.0062937005        2.6483409332       -0.1003742107
