58
 energy: -86.624873825674 gnorm: 0.000125572620 xtb: 6.7.1 (edcfbbe)
C           -0.54823837537039        3.16674934510819        0.77210159719809
C           -1.31073813373822        1.84438139535744        0.71950180126384
C           -1.73881998537163        1.55113816350918        2.18117349703196
C           -2.57165935288612        1.96086402733249       -0.11431461642767
C           -3.08475845598049        3.15603740892567       -0.59218769416138
C           -4.30511598969536        3.20355057704076       -1.24654724635871
C           -5.03334896974054        2.04211235309866       -1.43099250115400
C           -4.52712924721253        0.83412329106356       -0.99338534882440
C           -3.29397845656959        0.78405295364375       -0.34582353763674
N           -2.74072500688123       -0.42812048686409        0.05036846042270
C           -3.56756614611238       -1.58585631148245       -0.00351619684092
C           -3.55452347247614       -2.43030625493779       -1.10908908404811
C           -4.38151919804592       -3.53887547574814       -1.13950062921368
C           -5.22820977921940       -3.80581491649240       -0.07535012386412
C           -5.24890091695424       -2.96013765399720        1.02108857870971
C           -4.42119066566053       -1.85104944311602        1.05943244689825
C           -1.36165578933873       -0.54465163498408        0.15198188543280
C           -0.79125377026423       -1.83475428060203        0.18864922799137
C            0.55805248119441       -1.99127924368885        0.23238798979488
C            1.40667777606425       -0.87217623084173        0.12117333118402
C            2.79708085727983       -1.05992370591634        0.04473480776739
C            3.66550579073148       -0.00933908727968       -0.13769585180986
C            5.11430226013326       -0.21818459535203       -0.21382308896269
C            5.89925289416821        0.50190135738810       -1.11766145752438
C            7.26174949498572        0.30497762768033       -1.18798668278868
C            7.87463937634376       -0.62356165461640       -0.34258392475441
C            9.26797905896755       -0.82759153382674       -0.40651126107211
N           10.40344998683729       -0.99459921961366       -0.45903896206456
C            7.10071170574402       -1.35069371568763        0.56594478039091
C            5.73921087411308       -1.14616398482207        0.62338022299274
C            3.10613105437168        1.27596289100262       -0.28368210810039
C            1.76166557223443        1.48828067942501       -0.17326205933892
C            0.84323989595519        0.44081701419914        0.08527656138136
C           -0.56076144868737        0.59648640449580        0.25128182759874
H           -0.29846061571203        3.53365004173094       -0.22023849449874
H            0.35190146762698        3.06091924632121        1.37088984602191
H           -1.17491938797882        3.91154183825282        1.26013444042859
H           -2.30721019031516        0.62883229346449        2.25617458573763
H           -0.85601369991658        1.46016640349686        2.81123476780626
H           -2.35641040352290        2.36499843037904        2.55638856504908
H           -2.54659452257450        4.07825670091316       -0.44629827126008
H           -4.68984925749098        4.14966331184401       -1.59748683696426
H           -5.99274591932095        2.07113201038755       -1.92665384245001
H           -5.08612421070442       -0.07447896006229       -1.15852880813748
H           -2.89722866721348       -2.21032366629674       -1.93812347193434
H           -4.36828939934244       -4.19266167723905       -1.99915747806952
H           -5.87351601955044       -4.67112350098328       -0.10305094981105
H           -5.91079433869694       -3.16323763197245        1.84982681348148
H           -4.43591492456854       -1.18393101180306        1.90886201225257
H           -1.43754827857279       -2.69771740776957        0.22406278482249
H            0.99320908050653       -2.97621460930724        0.31876437891855
H            3.17183079326420       -2.07336758195007        0.08337286905166
H            5.43134652346725        1.20826131164801       -1.78684553008837
H            7.86268720841959        0.86034440179153       -1.89370445250396
H            7.57842377484075       -2.06578094735171        1.22019008657719
H            5.14813179744429       -1.69752425614843        1.33921147896213
H            3.75833867673890        2.11579771041245       -0.47472406213598
H            1.40619559424744        2.48444049083666       -0.34982607237631
