70
 energy: -111.522258402842 gnorm: 0.000078751272 xtb: 6.7.1 (edcfbbe)
C            8.04472582323524        3.51211553486994        0.46392647320017
C            6.68846363027569        3.75258717807172        0.67079957900440
C            5.74087806246421        2.76614201087684        0.46208774313636
C            6.18136129019016        1.52397868356891        0.02584575561294
C            7.56123963000216        1.26272950557398       -0.15485334534783
C            8.49376829110880        2.26710852779549        0.06140922760496
C            7.66864034649726       -0.11940090605989       -0.53653512745135
C            8.74023932997931       -0.93674201223162       -0.86674045528557
C            8.48597240938145       -2.24717689336862       -1.22968085316628
C            7.18279398942223       -2.73580191720267       -1.28578788701637
C            6.09895235369481       -1.93894360299194       -0.96140691448105
C            6.34944814781935       -0.63300819201617       -0.56272839187236
N            5.46018263084617        0.37030860111865       -0.22233898146824
C            4.07542153319135        0.23943250534977       -0.14798902590776
C            3.25630783508049        1.22129210931587       -0.76093029030208
C            1.88139655940759        1.11781791796024       -0.71693819241978
C            1.31033427772271        0.04563159072067       -0.05129037787198
C            2.14133324177595       -0.97422616345390        0.58870517617128
C            3.51908200634905       -0.84983319782907        0.51658613904703
C            1.26360016359583       -1.93534280566906        1.19634230914582
C            1.24447737925394       -3.13085650661462        1.94765422550313
C            0.00110603149116       -3.66746380940780        2.28660496110475
C           -1.24261523542882       -3.13153389068514        1.94783454304854
C           -1.26250540910311       -1.93605597700015        1.19648316362590
C           -2.14085080453171       -0.97545359788914        0.58890011791591
C           -3.51868779740935       -0.85188468092401        0.51679612789129
C           -4.07565860197642        0.23709659393802       -0.14770022601265
N           -5.46047047322395        0.36736684803907       -0.22213719244286
C           -6.18194863418029        1.52093259136988        0.02564404110062
C           -5.74187779805187        2.76301038130458        0.46254482095184
C           -6.68967429560445        3.74938723112100        0.67060038246045
C           -8.04573726130648        3.50893034154751        0.46239734478738
C           -8.49439330217828        2.26398935459268        0.05923707728745
C           -7.56164810178637        1.25965387271811       -0.15631882740547
C           -7.66863196670468       -0.12247848784547       -0.53815239808378
C           -8.73990443780992       -0.93983525914319       -0.86937275458336
C           -8.48525745677157       -2.25021187316202       -1.23226288965210
C           -7.18200934216084       -2.73875756604793       -1.28731181732590
C           -6.09848319095196       -1.94189286679465       -0.96187604302395
C           -6.34937617566468       -0.63599049055295       -0.56335055993155
C           -3.25711386498089        1.21945010471295       -0.76065106567623
C           -1.88215351525755        1.11673806232696       -0.71679236531697
C           -1.31046143021334        0.04486932699833       -0.05117343364552
N            0.00003522879220       -0.29246156910100        0.15768571873601
C            0.00039825463406       -1.45928606794596        0.89147650070194
H            8.75441852470154        4.30815202220945        0.63425753704690
H            6.36877161486405        4.72824259439007        1.00570657068743
H            4.69522324054431        2.95620478532914        0.64810593699273
H            9.54708248501372        2.07582539107361       -0.07683735344782
H            9.74900632068457       -0.55316298963094       -0.84594687024653
H            9.30659284933400       -2.90047346127401       -1.48680456241019
H            7.01269491292561       -3.75680083405657       -1.59385515493773
H            5.09228964713990       -2.32156685591877       -1.03022565179138
H            3.72398987289400        2.02405656869712       -1.30745326613579
H            1.26520564094345        1.85666387245232       -1.20644582650189
H            4.15752266791500       -1.56714945116401        1.01000195658414
H            2.15213416314851       -3.62355936648197        2.26055460830855
H            0.00139777555009       -4.58226070596887        2.86650066906628
H           -2.14995097887492       -3.62476064745034        2.26083938358287
H           -4.15670704208521       -1.56960786118014        1.01016502414447
H           -4.69638494606496        2.95303778559747        0.64951224445635
H           -6.37031157112368        4.72498149637444        1.00599525209035
H           -8.75560222259514        4.30491004443019        0.63225274859132
H           -9.54758640754581        2.07269320742403       -0.07988215390119
H           -9.74868816928696       -0.55624461063702       -0.84962708405103
H           -9.30561901837116       -2.90347260426917       -1.49029636599061
H           -7.01160692581019       -3.75977091297805       -1.59516703201812
H           -5.09175395942486       -2.32451596080579       -1.02970880643984
H           -3.72531137757706        2.02198556193450       -1.30706925170140
H           -1.26639493776953        1.85596866941098       -1.20625118025200
