  70
       -111.47790573
 C          8.4499051374        1.2214526881       -2.2734088166
 C          7.1414320675        1.5875645706       -2.5797821503
 C          6.0672711423        1.0922345946       -1.8619365135
 C          6.3336600276        0.2230011015       -0.8136562714
 C          7.6583232667       -0.1807611459       -0.5183236010
 C          8.7199272460        0.3299136230       -1.2515137427
 C          7.5659753904       -1.1252995188        0.5603576340
 C          8.5086192737       -1.8360527348        1.2893919695
 C          8.0722744533       -2.6560030032        2.3137592348
 C          6.7185407067       -2.7565010392        2.6252945586
 C          5.7606640363       -2.0573672570        1.9124127928
 C          6.1888329778       -1.2568180443        0.8631184585
 N          5.4562997047       -0.4354721454        0.0273165373
 C          4.0726285486       -0.2882211056        0.0322295526
 C          3.2554708108       -1.4463856974        0.0645735340
 C          1.8807448701       -1.3366398222        0.0537200459
 C          1.3089469698       -0.0752486991        0.0324820088
 C          2.1390525681        1.1290571544        0.0091930955
 C          3.5153817150        0.9870963219       -0.0010094188
 C          1.2599478722        2.2657549122        0.0042614278
 C          1.2393219229        3.6755057096       -0.0193656302
 C         -0.0047426651        4.3087526724       -0.0251807760
 C         -1.2474320433        3.6728775137       -0.0129270647
 C         -1.2649804472        2.2630525407        0.0062237671
 C         -2.1416612337        1.1246345034        0.0259667282
 C         -3.5176602183        0.9799425409        0.0206248287
 C         -4.0719569542       -0.2971234267        0.0110022067
 N         -5.4549639825       -0.4477888000       -0.0118148735
 C         -6.1648268497       -1.2922344729       -0.8446087895
 C         -5.7086088364       -2.1217054007       -1.8590085973
 C         -6.6468117545       -2.8401888674       -2.5786167171
 C         -8.0084394791       -2.7305181463       -2.3080785637
 C         -8.4722954002       -1.8820578568       -1.3196769890
 C         -7.5496742143       -1.1516762788       -0.5845293966
 C         -7.6712315136       -0.1766532500        0.4636455461
 C         -8.7526848585        0.3561489258        1.1506801873
 C         -8.5107312486        1.2774366266        2.1530419657
 C         -7.2111410052        1.6513977742        2.4859968505
 C         -6.1175446799        1.1342759149        1.8143112571
 C         -6.3549986371        0.2349208021        0.7846741106
 C         -3.2520559406       -1.4538433335        0.0244579735
 C         -1.8778756090       -1.3408123822        0.0495381517
 C         -1.3088393995       -0.0780078693        0.0414304349
 N         -0.0004110559        0.3209926463        0.0346114499
 C         -0.0019052805        1.6981489460        0.0158271966
 H          9.2622479557        1.6319376162       -2.8540210164
 H          6.9595851289        2.2676328714       -3.3983266323
 H          5.0560436424        1.3639075844       -2.1215997718
 H          9.7329582041        0.0297886305       -1.0299811014
 H          9.5599081702       -1.7424051653        1.0631966384
 H          8.7900955369       -3.2188910817        2.8915236944
 H          6.4094199839       -3.3886160193        3.4440352447
 H          4.7165999391       -2.1222468213        2.1770333118
 H          3.7251325580       -2.4162516320        0.0418620571
 H          1.2641269468       -2.2228579251        0.0498800955
 H          4.1542981130        1.8568490031        0.0146004375
 H          2.1462674544        4.2589510947       -0.0302619182
 H         -0.0059275352        5.3907044692       -0.0417907042
 H         -2.1555548632        4.2542832878       -0.0222734223
 H         -4.1577298167        1.8477134306       -0.0271094029
 H         -4.6577989332       -2.1937689799       -2.0931893745
 H         -6.3154934726       -3.4945773127       -3.3707461403
 H         -8.7103355184       -3.3091368795       -2.8897879841
 H         -9.5293893558       -1.7816827311       -1.1257719773
 H         -9.7592914924        0.0501867246        0.9091672128
 H         -9.3388193432        1.7056218649        2.6975796506
 H         -7.0519812903        2.3556431361        3.2886196932
 H         -5.1134586480        1.4128526142        2.0950335063
 H         -3.7201083802       -2.4236644457        0.0684980087
 H         -1.2596160499       -2.2252120001        0.0846891668
