  70
       -111.57150677
 C          8.0864465805        3.4534642811        0.5577167249
 C          6.7290815860        3.7038829483        0.7481432583
 C          5.7747952589        2.7364076551        0.4987450057
 C          6.2092531244        1.5004681837        0.0411153502
 C          7.5862139113        1.2301560017       -0.1340770040
 C          8.5264537498        2.2190100775        0.1239292576
 C          7.6817985915       -0.1361220815       -0.5652707184
 C          8.7473447527       -0.9586140429       -0.9068640655
 C          8.4820789927       -2.2521522025       -1.3092241673
 C          7.1734011491       -2.7241669229       -1.3872538940
 C          6.0969878695       -1.9256063061       -1.0518621854
 C          6.3587647990       -0.6314472282       -0.6250517041
 N          5.4801852266        0.3677503492       -0.2586431103
 C          4.0849236500        0.2443910652       -0.1828296996
 C          3.2734650155        1.1820453017       -0.8258461453
 C          1.8939644941        1.1010321970       -0.7653636030
 C          1.3278732907        0.0546805470       -0.0609486750
 C          2.1480410299       -0.9201330069        0.5937132643
 C          3.5249167303       -0.8102059560        0.5316024513
 C          1.2655142845       -1.8767213895        1.2396710886
 C          1.2482113287       -3.0303346867        2.0177379932
 C          0.0088585793       -3.5640508269        2.3809209787
 C         -1.2333576614       -3.0310071214        2.0266568063
 C         -1.2570083099       -1.8772330409        1.2489268839
 C         -2.1446923544       -0.9209573644        0.6094730548
 C         -3.5221952745       -0.8124553421        0.5559699764
 C         -4.0877699706        0.2397499501       -0.1575812569
 N         -5.4832765645        0.3598446138       -0.2316873333
 C         -6.2126330362        1.4980278593        0.0461078618
 C         -5.7808373199        2.7355434956        0.5020244860
 C         -6.7349682816        3.7090814545        0.7269634326
 C         -8.0896521150        3.4636815340        0.5128083046
 C         -8.5276391864        2.2272457799        0.0827366819
 C         -7.5875823051        1.2318357563       -0.1491984701
 C         -7.6818309059       -0.1380775644       -0.5687862763
 C         -8.7456505639       -0.9592830760       -0.9187225014
 C         -8.4800667318       -2.2581961499       -1.3033021153
 C         -7.1724589979       -2.7365547514       -1.3558099124
 C         -6.0977300859       -1.9391152134       -1.0124343253
 C         -6.3600504811       -0.6394114409       -0.6029698875
 C         -3.2809678867        1.1785343916       -0.8049514264
 C         -1.9011413166        1.0997263174       -0.7520264089
 C         -1.3296129509        0.0538295118       -0.0513637228
 N          0.0000124288       -0.2715525120        0.1611165570
 C          0.0029934554       -1.3994497398        0.9205786312
 H          8.8009558167        4.2367403051        0.7622287271
 H          6.4162028266        4.6746970207        1.1032847580
 H          4.7267926646        2.9341413847        0.6667952324
 H          9.5791584461        2.0199506574       -0.0091664995
 H          9.7602010382       -0.5880059054       -0.8608207855
 H          9.2963245415       -2.9087060887       -1.5772032693
 H          6.9962206359       -3.7361955428       -1.7203686672
 H          5.0855129707       -2.2950465844       -1.1310439954
 H          3.7398409515        1.9760550773       -1.3888784297
 H          1.2800489965        1.8338790825       -1.2652554622
 H          4.1589835695       -1.5208105405        1.0391726125
 H          2.1564002206       -3.5149251849        2.3424807336
 H          0.0112798559       -4.4602613418        2.9849022283
 H         -2.1388103849       -3.5162084523        2.3579433114
 H         -4.1520668291       -1.5234107130        1.0681521345
 H         -4.7350749667        2.9299430506        0.6873131863
 H         -6.4239203527        4.6814054594        1.0796609833
 H         -8.8039581719        4.2522693437        0.6967312577
 H         -9.5787336341        2.0316908656       -0.0673136428
 H         -9.7573696314       -0.5835412676       -0.8926331340
 H         -9.2929849211       -2.9140518563       -1.5768275389
 H         -6.9945823540       -3.7528212910       -1.6751079302
 H         -5.0869733207       -2.3138624394       -1.0736166588
 H         -3.7516113727        1.9715985026       -1.3658807643
 H         -1.2911921692        1.8332446763       -1.2555691120
