  56
        -95.50664727
 N         -4.2107743561        7.2171425811       -0.8750194577
 C         -3.6888421462        6.2038942485       -0.7538094010
 C         -3.0371092057        4.9577572447       -0.6045513640
 C         -3.4070238748        3.8749402047       -1.4024537333
 C         -2.7671203762        2.6619083657       -1.2526394960
 C         -1.7517578240        2.5097948777       -0.3104615579
 C         -1.0558339970        1.2236510398       -0.1452684906
 C          0.3296699206        1.1904707654       -0.1365079433
 C          1.0150676401       -0.0148735078       -0.0034122688
 N          2.4171323544       -0.0316514408       -0.0039954994
 C          3.1392524761        0.6992298048        0.9488139959
 C          2.5197044163        1.4068854882        1.9710894262
 C          3.2653289388        2.1194208157        2.8976499090
 C          4.6436405153        2.1252445925        2.8272288286
 C          5.2791315675        1.3892515608        1.8393649039
 C          4.5393944926        0.6742848132        0.9147774125
 O          5.2416200238       -0.0629477661       -0.0029312065
 C          4.5235827544       -0.7928621399       -0.9144765370
 C          5.2479441507       -1.5324858783       -1.8317480448
 C          4.5970152321       -2.2613749932       -2.8148294953
 C          3.2193401564       -2.2236358705       -2.8879422850
 C          2.4890045070       -1.4868722572       -1.9681811517
 C          3.1232189870       -0.7861187335       -0.9501115108
 C          0.2980777539       -1.2014580538        0.1315866234
 C         -1.0877666057       -1.1964496038        0.1444802158
 C         -1.8200560472       -2.4621331971        0.3114295775
 C         -1.4879134889       -3.5606627664       -0.4804493228
 C         -2.1646191176       -4.7545505853       -0.3446381353
 C         -3.1838584381       -4.8675626891        0.6015930442
 C         -3.8788637910       -6.0907281104        0.7457483445
 N         -4.4379509512       -7.0843629878        0.8626145461
 C         -3.5121024321       -3.7776116490        1.4080011426
 C         -2.8333318682       -2.5857091026        1.2600469425
 C         -1.7716972580        0.0229915051        0.0005953638
 C         -3.1841789099        0.0409032400        0.0024874856
 N         -4.3316121285        0.0548141551        0.0040362234
 C         -1.3797559109        3.6003375736        0.4748798350
 C         -2.0172762223        4.8153044276        0.3370298698
 H         -4.1924434322        3.9923092598       -2.1336144612
 H         -3.0460251372        1.8305593397       -1.8821686962
 H          0.8858853590        2.1065614915       -0.2690165785
 H          1.4443733986        1.3920294584        2.0571079687
 H          2.7556442148        2.6642970119        3.6771716680
 H          5.2283796948        2.6828671647        3.5411730332
 H          6.3543083603        1.3494472819        1.7711520520
 H          6.3236588347       -1.5167915038       -1.7622498330
 H          5.1697059403       -2.8383848760       -3.5231136105
 H          2.6984511035       -2.7624488760       -3.6642658754
 H          1.4144841146       -1.4471852001       -2.0563677121
 H          0.8291378923       -2.1325011009        0.2631022341
 H         -0.7063013156       -3.4687549403       -1.2206187603
 H         -1.9136396483       -5.6021665490       -0.9648969412
 H         -4.2962156896       -3.8728662942        2.1438001116
 H         -3.0801280860       -1.7489434145        1.8957926790
 H         -0.5974955654        3.4861990292        1.2112239108
 H         -1.7346829948        5.6571463879        0.9515531858
