  56
  -95.1612927309000       0.256968732458895      !
 N         -3.9955422134        7.3456096389       -0.7003844631
 C         -3.4987834550        6.3180108451       -0.5960140421
 C         -2.8801976311        5.0521639757       -0.4732477478
 C         -3.3090266382        3.9858934080       -1.2640815694
 C         -2.7007418664        2.7540903212       -1.1414634113
 C         -1.6590002600        2.5652109688       -0.2346050612
 C         -1.0002478865        1.2560822834       -0.1115509574
 C          0.3835318592        1.1727792117       -0.1162658828
 C          1.0229661840       -0.0608087893       -0.0303750171
 N          2.4264550374       -0.1271593774       -0.0388238542
 C          3.1690872187        0.4684386913        0.9868902596
 C          2.5676819806        1.0757817138        2.0815907458
 C          3.3334332650        1.6410993091        3.0900659832
 C          4.7112886778        1.5982978360        3.0258357480
 C          5.3267683755        0.9690860448        1.9542577409
 C          4.5677758264        0.4023291342        0.9467854737
 O          5.2466004404       -0.2311650919       -0.0624230736
 C          4.5055574402       -0.8136411113       -1.0590340298
 C          5.2040610876       -1.4357102201       -2.0774232056
 C          4.5261211219       -2.0197333529       -3.1367527349
 C          3.1479161665       -1.9624969578       -3.1772096885
 C          2.4424135017       -1.3410478398       -2.1579344290
 C          3.1052961932       -0.7767666852       -1.0760426958
 C          0.2682463106       -1.2260844012        0.0672119762
 C         -1.1173857198       -1.1726605326        0.0887479387
 C         -1.9000426216       -2.4100614923        0.2313794343
 C         -1.5578540784       -3.3342237456        1.2179114369
 C         -2.2857298392       -4.4946589502        1.3760568372
 C         -3.3689758293       -4.7515282232        0.5348239446
 C         -4.1164676364       -5.9415803032        0.6931007191
 N         -4.7162779257       -6.9100365531        0.8201506107
 C         -3.7100470039       -3.8383431418       -0.4630489454
 C         -2.9791127382       -2.6775167390       -0.6091044079
 C         -1.7555343713        0.0760799446        0.0018361842
 C         -3.1600473207        0.1551711080        0.1371923997
 N         -4.2956977941        0.2232607796        0.2859773598
 C         -1.2299536111        3.6387011994        0.5448716966
 C         -1.8354209572        4.8728705080        0.4341009286
 H         -4.1141000918        4.1313981350       -1.9684255953
 H         -3.0245234449        1.9357026430       -1.7667942596
 H          0.9746702000        2.0710285780       -0.2155001908
 H          1.4913642429        1.0976761111        2.1563909210
 H          2.8395692125        2.1091343315        3.9274588533
 H          5.3116192703        2.0381877083        3.8060421120
 H          6.4003363727        0.9005950506        1.8835170835
 H          6.2808182858       -1.4458909886       -2.0246520700
 H          5.0794046674       -2.5029496850       -3.9260464324
 H          2.6067018018       -2.3948771661       -4.0044148263
 H          1.3662560022       -1.2870259185       -2.2140524013
 H          0.7689579771       -2.1810721132        0.1264519589
 H         -0.7302519333       -3.1252021312        1.8798071755
 H         -2.0276093556       -5.2041721164        2.1480936968
 H         -4.5458161392       -4.0446522731       -1.1144430006
 H         -3.2390766712       -1.9790418463       -1.3902893543
 H         -0.4293454418        3.4964762326        1.2560753813
 H         -1.5090402413        5.7016534281        1.0446009789
  56
  -95.1612925300000       0.256914108936096      !
 N         -4.0617902260        7.1656345249       -1.7029572421
 C         -3.5530221984        6.1637381372       -1.4773192725
 C         -2.9178226903        4.9310312016       -1.1999337124
 C         -3.3578715911        3.7618319305       -1.8207184406
 C         -2.7362984546        2.5621798920       -1.5424701176
 C         -1.6700423209        2.5081096566       -0.6465215357
 C         -1.0050017844        1.2325613963       -0.3387550588
 C          0.3792404928        1.1494146111       -0.3534867778
 C          1.0234758369       -0.0425683176       -0.0344042538
 N          2.4261843720       -0.1118167777       -0.0396638773
 C          3.1240653225       -0.4132071980        1.1358327090
 C          2.4847828083       -0.5732737292        2.3584994384
 C          3.2078615145       -0.8576890375        3.5069780903
 C          4.5819828956       -0.9744942736        3.4542790175
 C          5.2381907660       -0.7846064284        2.2476954069
 C          4.5217728761       -0.4988545737        1.0998173811
 O          5.2434451425       -0.2888839498       -0.0470217867
 C          4.5470035501        0.0084137515       -1.1906335927
 C          5.2877449720        0.2006654605       -2.3423893225
 C          4.6542037156        0.4705027333       -3.5458695484
 C          3.2761251170        0.5285798358       -3.5910701156
 C          2.5286977273        0.3384157968       -2.4386249082
 C          3.1494005625        0.0985186520       -1.2197093437
 C          0.2722149033       -1.1675062368        0.2953840421
 C         -1.1128833604       -1.1170559175        0.3089729366
 C         -1.8889237306       -2.3228382116        0.6355365551
 C         -2.9614965972       -2.7166936150       -0.1629751164
 C         -3.6791410718       -3.8553490136        0.1385006070
 C         -3.3310554052       -4.6190317427        1.2528511762
 C         -4.0611022276       -5.7892775509        1.5650270108
 N         -4.6467290528       -6.7417034039        1.8168490224
 C         -2.2565925600       -4.2339196825        2.0555649764
 C         -1.5417705078       -3.0969855433        1.7420633930
 C         -1.7558409642        0.0939522790       -0.0006358181
 C         -3.1589034476        0.1947633131        0.1348015197
 N         -4.2929517884        0.2863465731        0.2833631588
 C         -1.2281844762        3.6834841967       -0.0401634506
 C         -1.8461207603        4.8869508461       -0.3073639278
 H         -4.1839964435        3.8023855284       -2.5144281681
 H         -3.0716974924        1.6618752336       -2.0349691969
 H          0.9653393043        2.0177189269       -0.6156148532
 H          1.4131752752       -0.4624028509        2.4203851692
 H          2.6843666812       -0.9799500564        4.4425568636
 H          5.1489602172       -1.1984566634        4.3436518179
 H          6.3120209842       -0.8474869645        2.1755130424
 H          6.3613129006        0.1277798666       -2.2756563465
 H          5.2401800748        0.6201292522       -4.4384751861
 H          2.7671011099        0.7168250426       -4.5235671673
 H          1.4516510132        0.3671472694       -2.4948776419
 H          0.7768888939       -2.0962033090        0.5167868773
 H         -3.2240664588       -2.1371157583       -1.0352268724
 H         -4.5080092232       -4.1606150730       -0.4821773005
 H         -1.9924127235       -4.8287797296        2.9172478600
 H         -0.7174270211       -2.7921445805        2.3702060018
 H         -0.4091764089        3.6451887414        0.6631507092
 H         -1.5100591076        5.7950947827        0.1706082554
  56
  -95.1612179337000       0.237413750733612      !
 N         -4.0215358763        7.1208230487       -1.8909502745
 C         -3.5220346774        6.1254191836       -1.6202780941
 C         -2.8971933923        4.9013584906       -1.2867535601
 C         -1.8702336543        4.4033389570       -2.0895471210
 C         -1.2604895305        3.2116443513       -1.7585179748
 C         -1.6667830381        2.4942439175       -0.6336904197
 C         -1.0066789132        1.2233445297       -0.2988061531
 C          0.3766947660        1.1376331955       -0.3113460169
 C          1.0219586912       -0.0564987230        0.0014527180
 N          2.4228317565       -0.1271667191       -0.0245376333
 C          3.1451222270       -0.4680988913        1.1265915605
 C          2.5305692850       -0.6958209479        2.3513556823
 C          3.2774739020       -1.0270760371        3.4714877210
 C          4.6518352577       -1.1232913051        3.3901302798
 C          5.2838868074       -0.8608417433        2.1846272265
 C          4.5433679732       -0.5269920600        1.0651839664
 O          5.2445247401       -0.2415528089       -0.0781132198
 C          4.5266115610        0.1044294528       -1.1933897356
 C          5.2486565343        0.3823472615       -2.3399916686
 C          4.5947314032        0.6993709353       -3.5204500229
 C          3.2149543469        0.7126163755       -3.5501585436
 C          2.4870190680        0.4378060270       -2.4025911646
 C          3.1269059733        0.1585292920       -1.2015340721
 C          0.2686558208       -1.1786426622        0.3376806774
 C         -1.1161514022       -1.1203686070        0.3668232145
 C         -1.8951163225       -2.3164144348        0.7230567131
 C         -1.6030170710       -3.5418033951        0.1256320410
 C         -2.3241000983       -4.6713076898        0.4513028772
 C         -3.3489862883       -4.5897518635        1.3947230069
 C         -4.0865635723       -5.7471174319        1.7361828825
 N         -4.6781478444       -6.6886034576        2.0146254092
 C         -3.6408329206       -3.3696631664        2.0048185128
 C         -2.9177748411       -2.2444927534        1.6673973452
 C         -1.7593084533        0.0850659412        0.0380332001
 C         -3.1684953078        0.1201052008       -0.0578090178
 N         -4.3102704949        0.1343801259       -0.1721188019
 C         -2.6887018739        3.0025064694        0.1666106262
 C         -3.3015494240        4.1962051012       -0.1529515422
 H         -1.5615772831        4.9533829283       -2.9660927636
 H         -0.4740668419        2.8195659779       -2.3871948232
 H          0.9642586947        2.0138152792       -0.5419694431
 H          1.4593326022       -0.6038743693        2.4395196192
 H          2.7713164913       -1.2039618645        4.4077817124
 H          5.2369137808       -1.3860582983        4.2568844991
 H          6.3570961800       -0.9024392932        2.0909460641
 H          6.3245076971        0.3375539909       -2.2870828305
 H          5.1658492059        0.9183114670       -4.4084384952
 H          2.6901480867        0.9312863837       -4.4672974110
 H          1.4091235412        0.4275928679       -2.4499426351
 H          0.7698390740       -2.1034219002        0.5820989050
 H         -0.8191810327       -3.6004791360       -0.6152799838
 H         -2.1037808170       -5.6182246630       -0.0188042645
 H         -4.4315198970       -3.3130173716        2.7376321419
 H         -3.1375312571       -1.3048508739        2.1517234550
 H         -2.9938400021        2.4676972339        1.0532035703
 H         -4.0915092011        4.5895329341        0.4686463851
  56
  -95.1606407755000       0.128902792365741      !
 N         -3.9678645076        7.3785396352       -0.6297863657
 C         -3.4799989757        6.3450005965       -0.5428290697
 C         -2.8701679822        5.0735740828       -0.4357216497
 C         -3.2773127272        4.0302373571       -1.2673822949
 C         -2.6781945208        2.7922574979       -1.1586152100
 C         -1.6671320621        2.5757341023       -0.2244475503
 C         -1.0144523438        1.2623486210       -0.1028233045
 C          0.3691732219        1.1825880125       -0.0986612557
 C          1.0139933631       -0.0486906226       -0.0064700540
 N          2.4147064096       -0.1123168536       -0.0111568943
 C          3.1622916880        0.5626544984        0.9630200534
 C          2.5682861445        1.2570336967        2.0092792772
 C          3.3387098172        1.9137462016        2.9565664038
 C          4.7163389859        1.8757611761        2.8828720475
 C          5.3253790576        1.1514239239        1.8700465492
 C          4.5607609196        0.4920216425        0.9246375617
 O          5.2365582360       -0.2380655199       -0.0182794043
 C          4.4931458065       -0.9135486930       -0.9511930366
 C          5.1909870546       -1.6467788502       -1.8938068784
 C          4.5145757383       -2.3211570397       -2.8983558946
 C          3.1388339435       -2.2350128562       -2.9667081381
 C          2.4349295877       -1.5045208460       -2.0216835849
 C          3.0937439684       -0.8588258401       -0.9830350051
 C          0.2578460645       -1.2143954912        0.0917923731
 C         -1.1270322202       -1.1634684476        0.1083601479
 C         -1.9010743146       -2.4087131012        0.2360294973
 C         -1.6070744528       -3.4914180541       -0.5919029592
 C         -2.3232036723       -4.6657917695       -0.4931678183
 C         -3.3442826232       -4.7753502946        0.4514848580
 C         -4.0796701114       -5.9786290021        0.5576565740
 N         -4.6715650202       -6.9562851012        0.6436530870
 C         -3.6346524484       -3.7018171152        1.2936506896
 C         -2.9165435985       -2.5291009097        1.1827093313
 C         -1.7699294643        0.0821932831        0.0058389684
 C         -3.1810137005        0.1472578886        0.0118972284
 N         -4.3273331422        0.1994738800        0.0168095845
 C         -1.2576606313        3.6271265204        0.5949040402
 C         -1.8543147911        4.8665707491        0.4981516034
 H         -4.0594193461        4.1975065661       -1.9923551459
 H         -2.9857106732        1.9915995965       -1.8140668281
 H          0.9555771901        2.0833887371       -0.2027996792
 H          1.4931871192        1.2753575988        2.0975006424
 H          2.8486994852        2.4497387633        3.7546419692
 H          5.3204688125        2.3900196606        3.6130395161
 H          6.3985183895        1.0779256381        1.7978490019
 H          6.2667233635       -1.6693325341       -1.8265675936
 H          5.0665833761       -2.8936705365       -3.6264337090
 H          2.5990579962       -2.7305900393       -3.7587740190
 H          1.3622153341       -1.4260785333       -2.1058081303
 H          0.7576036495       -2.1664588500        0.1916928191
 H         -0.8238969696       -3.4016916441       -1.3306841415
 H         -2.1016652286       -5.5007197086       -1.1412268871
 H         -4.4204480886       -3.7946610236        2.0279615170
 H         -3.1342422035       -1.7056546662        1.8458845968
 H         -0.4785956844        3.4630214910        1.3251702940
 H         -1.5427824619        5.6780745263        1.1389362409
  56
  -95.1601511904000       7.678291430861685E-002 !
 N         -4.0226174567        7.1299256312       -1.8945013856
 C         -3.5216953530        6.1330248891       -1.6320161329
 C         -2.8968511049        4.9063244176       -1.3083650622
 C         -3.2835939327        3.7326307370       -1.9554864193
 C         -2.6719459601        2.5386157725       -1.6337534005
 C         -1.6684151084        2.4958772845       -0.6677207869
 C         -1.0081142665        1.2264504553       -0.3227188753
 C          0.3758034483        1.1507142449       -0.3026236300
 C          1.0203720702       -0.0469557294       -0.0018959467
 N          2.4219738642       -0.1144884933       -0.0045753944
 C          3.1213783473       -0.4820631634        1.1526179966
 C          2.4839983882       -0.7254728638        2.3626740454
 C          3.2085344917       -1.0833664946        3.4892490480
 C          4.5831603192       -1.1906130091        3.4297351917
 C          5.2381654639       -0.9124693799        2.2401298072
 C          4.5200176418       -0.5524307117        1.1143256879
 O          5.2431825248       -0.2539840386       -0.0114104936
 C          4.5475264560        0.1133715404       -1.1340196345
 C          5.2920935733        0.3993606748       -2.2638138802
 C          4.6618845562        0.7390350896       -3.4507473240
 C          3.2831072406        0.7676705110       -3.5035826386
 C          2.5324037614        0.4846248030       -2.3729735644
 C          3.1486022173        0.1811959587       -1.1655544105
 C          0.2653052295       -1.1774400950        0.3013370755
 C         -1.1195363719       -1.1210061234        0.3251497204
 C         -1.8958896282       -2.3218335109        0.6737549113
 C         -1.6184551724       -3.5344179356        0.0442746524
 C         -2.3361367151       -4.6691158481        0.3592486963
 C         -3.3420998976       -4.6054262593        1.3241916557
 C         -4.0770974072       -5.7678727912        1.6535014597
 N         -4.6663801047       -6.7136711677        1.9218139217
 C         -3.6173973600       -3.3986188929        1.9673955743
 C         -2.8978329979       -2.2677681865        1.6409045919
 C         -1.7621367493        0.0859846858        0.0017663510
 C         -3.1734047267        0.1531625494        0.0024035652
 N         -4.3195566928        0.2075546372        0.0028971486
 C         -1.2784941905        3.6752753819       -0.0348065947
 C         -1.8880188492        4.8728763715       -0.3448748339
 H         -4.0605576828        3.7648595298       -2.7042450593
 H         -2.9650387344        1.6344108189       -2.1456620917
 H          0.9620117421        2.0270852986       -0.5362785967
 H          1.4121744740       -0.6260775212        2.4344291960
 H          2.6847107056       -1.2719882790        4.4133136379
 H          5.1509189602       -1.4737971559        4.3013006471
 H          6.3124175403       -0.9622564306        2.1640170054
 H          6.3664103523        0.3436162649       -2.1928326751
 H          5.2506607838        0.9657015962       -4.3252768909
 H          2.7758763615        1.0072859440       -4.4253328670
 H          1.4556885995        0.4917423991       -2.4394099539
 H          0.7658773939       -2.1056455813        0.5339390704
 H         -0.8480181385       -3.5783932435       -0.7116789496
 H         -2.1270192682       -5.6063683708       -0.1347737454
 H         -4.3928460022       -3.3560337058        2.7172001232
 H         -3.1047029705       -1.3385588411        2.1501171774
 H         -0.5066033842        3.6446965406        0.7203432855
 H         -1.5923964633        5.7848735724        0.1522163453
  56
  -95.1596036821000       4.301770119703923E-002 !
 N         -3.9800544465        7.0922437560       -2.1073131000
 C         -3.4920607192        6.1034630354       -1.7947630135
 C         -2.8820074884        4.8855889194       -1.4147324731
 C         -3.2334866702        3.6998044611       -2.0603214335
 C         -2.6333741477        2.5146031404       -1.6896251377
 C         -1.6757246384        2.4921711154       -0.6768511379
 C         -1.0193163638        1.2267800546       -0.3098373283
 C          0.3634509560        1.1546512513       -0.2600280005
 C          1.0089593725       -0.0575673247       -0.0162267057
 N          2.4073147687       -0.1271857380       -0.0155973219
 C          3.1007063533       -0.6737723988        1.0765908123
 C          2.4623157117       -1.1025032842        2.2344893540
 C          3.1785823059       -1.6652561862        3.2794591302
 C          4.5504839463       -1.7926297967        3.1975067039
 C          5.2105803914       -1.3117527824        2.0783995719
 C          4.4994078313       -0.7447658360        1.0356250019
 O          5.2345372559       -0.2412452148       -0.0047964164
 C          4.5506037863        0.3190994795       -1.0509062131
 C          5.3124979118        0.8270080387       -2.0882985477
 C          4.7010012573        1.3581185190       -3.2123143737
 C          3.3239273260        1.3399944895       -3.3049203187
 C          2.5573274191        0.8372554822       -2.2651368126
 C          3.1511894471        0.3606024851       -1.1022923447
 C          0.2457638891       -1.1987803731        0.2290239395
 C         -1.1377654354       -1.1331585218        0.2794506696
 C         -1.9132973873       -2.3230780784        0.6644618484
 C         -1.6628638715       -3.5579222085        0.0688386370
 C         -2.3663744755       -4.6792372720        0.4568168346
 C         -3.3296696061       -4.5793476860        1.4614523783
 C         -4.0410844546       -5.7290407701        1.8759780901
 N         -4.6079611124       -6.6648288061        2.2175282517
 C         -3.5828861469       -3.3478630542        2.0659297193
 C         -2.8784460507       -2.2314924281        1.6664914958
 C         -1.7782012880        0.0813916492       -0.0173053167
 C         -3.1887665970        0.1524605007       -0.0236017161
 N         -4.3347503670        0.2130548516       -0.0333446485
 C         -1.3231201123        3.6821072446       -0.0431989864
 C         -1.9229042079        4.8716005399       -0.4014290970
 H         -3.9722996579        3.7166758788       -2.8472819911
 H         -2.8971437651        1.6003253161       -2.1999036325
 H          0.9473908431        2.0460641320       -0.4339808760
 H          1.3945057993       -0.9898836413        2.3349070282
 H          2.6494202423       -2.0015495696        4.1575162327
 H          5.1109775956       -2.2437180912        4.0005300960
 H          6.2842838455       -1.3588688054        1.9935695602
 H          6.3859005289        0.7887591736       -1.9954823432
 H          5.3016658288        1.7619102465       -4.0115092195
 H          2.8300862474        1.7152277236       -4.1877554143
 H          1.4845524335        0.8101423521       -2.3724936064
 H          0.7382519664       -2.1434502697        0.4044107802
 H         -0.9236068971       -3.6321631685       -0.7152872564
 H         -2.1768529789       -5.6350502129       -0.0087076818
 H         -4.3268454350       -3.2757967653        2.8448962822
 H         -3.0654456640       -1.2830640558        2.1474097549
 H         -0.5879584844        3.6674754416        0.7481656491
 H         -1.6569102221        5.7925910753        0.0958150398
