  67
  -101.367155949200       0.182251203775976      !
 C         -7.0051604484        2.4724556643        1.0399701780
 C         -7.0798005585        1.5070673890       -0.1469411072
 C         -6.9327461905        2.2692514672       -1.4673179485
 C         -8.3599625542        0.7029401424       -0.1181512980
 C         -9.6624800569        1.1468244618       -0.1933417743
 C        -10.6914292186        0.2154356835       -0.1475944219
 C        -10.4192050930       -1.1388282238       -0.0283860573
 C         -9.1133615672       -1.5942297060        0.0479053730
 C         -8.0842077840       -0.6675785618        0.0025543159
 C         -6.6438150785       -0.8446006927        0.0588088633
 C         -5.8726923682       -1.9919533781        0.1749712308
 C         -4.4972953528       -1.8690687501        0.2009838109
 C         -3.8876034405       -0.6153574096        0.1122471762
 C         -2.4330647885       -0.5088864236        0.1315756793
 N         -1.8924524776        0.7055980700        0.0083410010
 C         -0.5813506010        0.7975110801        0.0149716458
 C          0.2595188262       -0.3131426374        0.1330731827
 C          1.7163125273       -0.2112331670        0.1139366747
 C          2.3525684302        0.6990350935       -0.7298251171
 C          3.7286144323        0.7834780971       -0.7684307760
 C          4.5046537506       -0.0324651602        0.0519553610
 N          5.9003606631        0.0507630073        0.0127862147
 C          6.7699184011       -1.0145282222       -0.1257766480
 C          6.4962482425       -2.3652548559       -0.2854413227
 C          7.5659660935       -3.2275292793       -0.4326013099
 C          8.8796177347       -2.7642883573       -0.4320872849
 C          9.1571345898       -1.4184969774       -0.2996126304
 C          8.0985804965       -0.5325284121       -0.1493088979
 C          8.0182684210        0.8948821839       -0.0118703516
 C          8.9712661768        1.9027857457        0.0510768179
 C          8.5460546848        3.2058016689        0.2155480403
 C          7.1912059745        3.5072583982        0.3331974781
 C          6.2244531372        2.5217481111        0.2728100441
 C          6.6442256044        1.2133173197        0.0810851401
 C          3.8760342549       -0.9343758644        0.9077057658
 C          2.4998740244       -1.0266402642        0.9301118254
 C         -0.4125064517       -1.5324942355        0.2626811035
 N         -1.7228231964       -1.6308793731        0.2674195877
 C         -4.6680581474        0.5402132265       -0.0025884356
 C         -6.0360743377        0.4187821868       -0.0285220947
 H         -7.8003782253        3.2116097543        0.9763318028
 H         -7.1114361393        1.9273451230        1.9755578564
 H         -6.0480096404        2.9880919329        1.0451881476
 H         -7.7244812747        3.0080834641       -1.5670435452
 H         -6.9921082254        1.5803563611       -2.3073034173
 H         -5.9726312642        2.7782388714       -1.5022060000
 H         -9.8873549870        2.1994860217       -0.2864377949
 H        -11.7168938384        0.5499689499       -0.2060670204
 H        -11.2357113499       -1.8454688384        0.0050659716
 H         -8.9028907211       -2.6493599390        0.1403892834
 H         -6.3381422499       -2.9640791724        0.2421180779
 H         -3.8658517749       -2.7392724507        0.2882747357
 H         -0.1788251748        1.8010216739       -0.0602015433
 H          1.7620367333        1.3222044648       -1.3850929919
 H          4.2129286493        1.4684969682       -1.4480485032
 H          5.4816123575       -2.7335385122       -0.3070415815
 H          7.3785002107       -4.2841401552       -0.5548762956
 H          9.6881457829       -3.4705487830       -0.5477325874
 H         10.1740343065       -1.0565644071       -0.3167196127
 H         10.0220075406        1.6663570572       -0.0228894705
 H          9.2705465919        4.0051399765        0.2634882248
 H          6.8892936309        4.5340264373        0.4784762081
 H          5.1784280997        2.7644804107        0.3845702536
 H          4.4733590511       -1.5489310494        1.5643567344
 H          2.0233355305       -1.7180676125        1.6092896837
 H          0.1304443770       -2.4667167602        0.3461027580
 H         -4.1745785983        1.4970931836       -0.0691118321
  67
  -101.367047414600       0.162476799960367      !
 C         -6.9676706621        2.5660065676       -0.7899630769
 C         -7.0607786289        1.0685150872       -1.1009552422
 C         -6.9152167275        0.8246389825       -2.6054813403
 C         -8.3490304741        0.4832449641       -0.5680163242
 C         -9.6471149014        0.7876133823       -0.9168163989
 C        -10.6855611097        0.1144833729       -0.2869132145
 C        -10.4270576376       -0.8471909841        0.6777535191
 C         -9.1257696503       -1.1586706328        1.0358734907
 C         -8.0870955420       -0.4894218967        0.4088079687
 C         -6.6482301895       -0.6060378321        0.5688911359
 C         -5.8885044017       -1.4141713546        1.4021118807
 C         -4.5115535408       -1.3229460213        1.3427278085
 C         -3.8894376056       -0.4403967768        0.4567476608
 C         -2.4336031802       -0.3700160694        0.3978355447
 N         -1.8833761269        0.3764475923       -0.5626218286
 C         -0.5714953768        0.4344355480       -0.6186046106
 C          0.2588662651       -0.2469351232        0.2757386076
 C          1.7170648146       -0.1801868994        0.2057340443
 C          2.3696242656       -0.2139817504       -1.0259077461
 C          3.7456877095       -0.1465909087       -1.0967217564
 C          4.5023339220       -0.0394878352        0.0677739891
 N          5.8981542461        0.0369326838       -0.0027138644
 C          6.7207570287       -0.8226757852       -0.7046576253
 C          6.3971909220       -1.9614975606       -1.4280309947
 C          7.4297537787       -2.6674881454       -2.0148631840
 C          8.7557604560       -2.2614579930       -1.8831979758
 C          9.0857359277       -1.1424896719       -1.1451725933
 C          8.0653792705       -0.4166572975       -0.5451819353
 C          8.0429741432        0.7520290128        0.2893699487
 C          9.0309058987        1.6004253011        0.7714772286
 C          8.6561183636        2.6773920824        1.5495084471
 C          7.3149100460        2.9214531209        1.8365108579
 C          6.3140211589        2.0916381427        1.3685782823
 C          6.6865788428        0.9946957110        0.6052415798
 C          3.8574047688       -0.0067943673        1.3018334910
 C          2.4810558742       -0.0784610872        1.3673982472
 C         -0.4218798046       -0.9944749798        1.2408875092
 N         -1.7333602987       -1.0562642521        1.3034124477
 C         -4.6582351185        0.3757823410       -0.3799876124
 C         -6.0277476691        0.2914884739       -0.3156559098
 H         -7.7534455342        3.1093720779       -1.3094423962
 H         -7.0768963869        2.7350229933        0.2791943180
 H         -6.0037214989        2.9566355294       -1.1066227488
 H         -7.7034744390        1.3393710198       -3.1499597156
 H         -6.9808556648       -0.2395152026       -2.8220551602
 H         -5.9529558440        1.1915455231       -2.9539665874
 H         -9.8612719508        1.5350299123       -1.6668666303
 H        -11.7076820802        0.3422108950       -0.5522552773
 H        -11.2507980468       -1.3590708855        1.1538541291
 H         -8.9260487720       -1.9083360026        1.7870929657
 H         -6.3638505734       -2.1028282121        2.0848504734
 H         -3.8889026595       -1.9356742138        1.9754812845
 H         -0.1586228440        1.0648830166       -1.3976742441
 H          1.7916300298       -0.3065170433       -1.9336117826
 H          4.2433886606       -0.1609476890       -2.0547059446
 H          5.3743419254       -2.2948525514       -1.5208727746
 H          7.2035714439       -3.5563063968       -2.5852827738
 H          9.5337907293       -2.8392183897       -2.3591736402
 H         10.1145946957       -0.8369185418       -1.0291083411
 H         10.0686521960        1.4202520484        0.5351275987
 H          9.4086848129        3.3488880639        1.9352445183
 H          7.0506706645        3.7809623606        2.4348895471
 H          5.2762849549        2.3000412568        1.5815915458
 H          4.4431497531        0.0613510251        2.2063313114
 H          1.9889440259       -0.0406537422        2.3281645513
 H          0.1147887770       -1.5797586496        1.9785496754
 H         -4.1551990386        1.0521133281       -1.0528540010
  67
  -101.366981888800       0.151592524083970      !
 C         -6.9483436057        2.3938526779       -1.2311661040
 C         -7.0677552192        0.8672636121       -1.2703401387
 C         -6.9525977604        0.3584406077       -2.7105787143
 C         -8.3546727111        0.4013144799       -0.6276013049
 C         -9.6544498212        0.6753000585       -0.9950346387
 C        -10.6908582193        0.1321269759       -0.2471238669
 C        -10.4287982846       -0.6732123984        0.8505911624
 C         -9.1258827418       -0.9538275613        1.2276378914
 C         -8.0892311615       -0.4126629042        0.4841667914
 C         -6.6495939977       -0.5265706773        0.6387980945
 C         -5.8872724174       -1.2083356302        1.5762081929
 C         -4.5105990521       -1.1390367396        1.4911667340
 C         -3.8909495563       -0.4000473220        0.4805475150
 C         -2.4353473072       -0.3371670579        0.4120320296
 N         -1.8844598045        0.3551150026       -0.5877541335
 C         -0.5725054707        0.4079318380       -0.6479420818
 C          0.2589557093       -0.2121122323        0.2895934604
 C          1.7167769473       -0.1435225616        0.2237221416
 C          2.3560148909        1.0239778664       -0.1925932994
 C          3.7320885206        1.0895512609       -0.2621389883
 C          4.5053385041       -0.0148795355        0.0883290734
 N          5.9010353217        0.0472766458        0.0124070285
 C          6.7169399482       -0.8736083679       -0.6172320116
 C          6.3780952134       -2.0165000910       -1.3272643932
 C          7.4023217866       -2.7545583097       -1.8890819592
 C          8.7341445987       -2.3671718231       -1.7603707756
 C          9.0754855900       -1.2173239139       -1.0771103699
 C          8.0635902567       -0.4589311660       -0.5033942871
 C          8.0512286288        0.7715903160        0.2372781379
 C          9.0492085968        1.6329328344        0.6734789998
 C          8.6881991902        2.7484310919        1.4020126650
 C          7.3534876656        3.0006462136        1.7108494347
 C          6.3429274996        2.1586364939        1.2877463178
 C          6.6970651026        1.0501565208        0.5321702064
 C          3.8744924007       -1.1828306004        0.5108306225
 C          2.4978381714       -1.2443287212        0.5746219147
 C         -0.4235170721       -0.9042021560        1.2948415548
 N         -1.7344537739       -0.9726416552        1.3536170768
 C         -4.6624186053        0.2837187178       -0.4656228731
 C         -6.0318383359        0.2177660158       -0.3798322684
 H         -7.7349725843        2.8502527058       -1.8276903226
 H         -7.0364570229        2.7517248314       -0.2073916759
 H         -5.9846774428        2.7055282359       -1.6264020700
 H         -7.7424874311        0.7833168463       -3.3257355105
 H         -7.0390266315       -0.7260145447       -2.7337681783
 H         -5.9908670681        0.6396667988       -3.1326963362
 H         -9.8715342572        1.3013169135       -1.8482995408
 H        -11.7143181373        0.3394055497       -0.5239114793
 H        -11.2511295366       -1.0856934505        1.4173504495
 H         -8.9233036736       -1.5810805925        2.0832584641
 H         -6.3605402627       -1.7814957308        2.3595610688
 H         -3.8857724102       -1.6537152658        2.2041259995
 H         -0.1612031809        0.9524569889       -1.4899687005
 H          1.7679144670        1.8914128493       -0.4535116986
 H          4.2171748210        1.9918107814       -0.6033760649
 H          5.3482253537       -2.3160677448       -1.4504473294
 H          7.1638844060       -3.6501622895       -2.4437864814
 H          9.5058340854       -2.9726976761       -2.2122117853
 H         10.1059264917       -0.9068538544       -0.9919214910
 H         10.0848504188        1.4275672306        0.4483582125
 H          9.4482620062        3.4331935864        1.7476924478
 H          7.1026238568        3.8723474147        2.2972142161
 H          5.3137464629        2.3538199448        1.5492505290
 H          4.4709346895       -2.0348746499        0.8005679134
 H          2.0198983550       -2.1607371591        0.8877902758
 H          0.1104116279       -1.4057502147        2.0934475732
 H         -4.1614121010        0.8465220243       -1.2372242541
  67
  -101.366962745100       0.148552494482232      !
 C         -7.0179702132        0.0218548558        2.7240008918
 C         -7.0733500641        0.7213245562        1.3625504725
 C         -6.9018751872        2.2343256206        1.5304263284
 C         -8.3555057568        0.3957826679        0.6301831625
 C         -9.6555647994        0.6646571290        1.0001821517
 C        -10.6870265248        0.2706218867        0.1580351701
 C        -10.4196667285       -0.3823752687       -1.0354450726
 C         -9.1163736379       -0.6573999694       -1.4152180637
 C         -8.0846794421       -0.2655179809       -0.5773210887
 C         -6.6458498909       -0.4118688237       -0.7099494957
 C         -5.8792164542       -0.9849830110       -1.7140163410
 C         -4.5039807669       -0.9773431912       -1.5871578450
 C         -3.8901260679       -0.4078608039       -0.4690471755
 C         -2.4353562972       -0.3933142631       -0.3649553872
 N         -1.8902006510        0.1396913864        0.7308298651
 C         -0.5785735690        0.1739228220        0.8099439119
 C          0.2586977782       -0.3046518791       -0.2024315749
 C          1.7157797214       -0.2256821705       -0.1326815283
 C          2.5137146638       -1.2449682887       -0.6514790072
 C          3.8898525506       -1.1584246889       -0.6049739123
 C          4.5037991082       -0.0473904372       -0.0314081496
 N          5.8989945730        0.0479251908        0.0113043202
 C          6.7651970416       -0.9325757700        0.4561036710
 C          6.4872227953       -2.1779340047        1.0008970327
 C          7.5541919150       -2.9625333416        1.3950429471
 C          8.8692209989       -2.5223391683        1.2633715483
 C          9.1509040235       -1.2736212294        0.7467684576
 C          8.0951844716       -0.4671105542        0.3430159509
 C          8.0192771048        0.8584198098       -0.2044459292
 C          8.9757350208        1.8020710070       -0.5550203847
 C          8.5552895726        3.0010478437       -1.0946586043
 C          7.2017362711        3.2575027394       -1.3008946471
 C          6.2316573661        2.3346528835       -0.9592379920
 C          6.6464391801        1.1383077658       -0.3919463491
 C          3.7135739295        0.9709783930        0.4970923182
 C          2.3382315020        0.8816773292        0.4434964603
 C         -0.4182226831       -0.8550767068       -1.2954668538
 N         -1.7287439292       -0.9060785147       -1.3748467353
 C         -4.6662889223        0.1635263367        0.5452097412
 C         -6.0340322219        0.1600381270        0.4177622314
 H         -7.1472732521       -1.0513449659        2.6008607991
 H         -6.0579739740        0.2036800633        3.2008550880
 H         -7.8070619666        0.3947704468        3.3728330144
 H         -7.6924564709        2.6371677181        2.1592776270
 H         -6.9433165023        2.7271126529        0.5613121277
 H         -5.9421066543        2.4544428966        1.9912707780
 H         -9.8765570958        1.1732224375        1.9273993699
 H        -11.7106976845        0.4754936615        0.4360217922
 H        -11.2380408531       -0.6792179353       -1.6752395704
 H         -8.9098395580       -1.1660696150       -2.3450620971
 H         -6.3477957702       -1.4256743003       -2.5814281937
 H         -3.8758617011       -1.4086335166       -2.3506901546
 H         -0.1731247611        0.5863437730        1.7265790061
 H          2.0505633524       -2.1179609207       -1.0869821483
 H          4.4982925042       -1.9434636008       -1.0282560884
 H          5.4714616072       -2.5216156966        1.1260193165
 H          7.3634855409       -3.9376116348        1.8185595818
 H          9.6755610651       -3.1668769761        1.5802101875
 H         10.1688500784       -0.9247228418        0.6603369350
 H         10.0254537258        1.5949755953       -0.4115564483
 H          9.2823506412        3.7497537999       -1.3718853323
 H          6.9033356810        4.1977378739       -1.7407848988
 H          5.1869537156        2.5369444623       -1.1415592739
 H          4.1856704807        1.8247114792        0.9596254076
 H          1.7369380994        1.6864820591        0.8397963675
 H          0.1203569837       -1.2514270594       -2.1482766933
 H         -4.1697513749        0.5962653644        1.3994461122
  67
  -101.366872036100       0.134956242748242      !
 C         -6.7644939971        2.4024822703       -1.3267416352
 C         -7.0098977998        0.8907571817       -1.2935471967
 C         -6.9833133974        0.3129322265       -2.7117158433
 C         -8.3081259734        0.5631322448       -0.5911675065
 C         -9.5923867840        0.9287651367       -0.9320203240
 C        -10.6438798982        0.5116199635       -0.1265974302
 C        -10.4118329851       -0.2596631457        1.0019212656
 C         -9.1245885651       -0.6323319109        1.3520799502
 C         -8.0729766525       -0.2177461261        0.5507080281
 C         -6.6432082982       -0.4450189869        0.6673280558
 C         -5.9071508912       -1.1423415900        1.6142630598
 C         -4.5323487520       -1.1858156676        1.4883513619
 C         -3.8894044897       -0.5441135756        0.4272975068
 C         -2.4346733683       -0.5733025389        0.3273752930
 N         -1.7481976843       -1.1791257004        1.2983886774
 C         -0.4358994697       -1.1567581821        1.2288475113
 C          0.2599932842       -0.5234093644        0.1949391462
 C          1.7176176787       -0.4348836993        0.1504865034
 C          2.4062710716       -0.5479487717       -1.0565772170
 C          3.7786717942       -0.4140310390       -1.1006631201
 C          4.4951978787       -0.1606177620        0.0664837129
 N          5.8830607338        0.0139820832        0.0211258833
 C          6.7899379054       -0.8245631888       -0.5965007489
 C          6.5790837628       -2.0411088855       -1.2292383981
 C          7.6796839550       -2.6992700306       -1.7437613471
 C          8.9633728718       -2.1705029132       -1.6283852896
 C          9.1820325944       -0.9726215494       -0.9780550494
 C          8.0917386743       -0.2926649538       -0.4516441808
 C          7.9528251726        0.9328803130        0.2842924064
 C          8.8547413758        1.8988913000        0.7108247489
 C          8.3733936362        2.9984431306        1.3927023122
 C          7.0102723708        3.1495841284        1.6368094558
 C          6.0935960126        2.2024133631        1.2223636656
 C          6.5743032806        1.0829529209        0.5586983809
 C          3.8163077442       -0.0665861137        1.2789971117
 C          2.4441963223       -0.2029721952        1.3178456186
 C         -0.5573533721        0.0467148969       -0.7853861856
 N         -1.8698904491        0.0222745426       -0.7256971334
 C         -4.6351080206        0.1507530869       -0.5311976570
 C         -6.0018457095        0.1976163819       -0.4043965357
 H         -6.7847147046        2.8088392728       -0.3176372272
 H         -5.7937386215        2.6157472166       -1.7675235212
 H         -7.5326433813        2.8976602673       -1.9162546725
 H         -7.7553508027        0.7751696270       -3.3223899292
 H         -7.1583937680       -0.7604777199       -2.6838073697
 H         -6.0161232201        0.4954323569       -3.1736506727
 H         -9.7858552614        1.5299677422       -1.8086053034
 H        -11.6554706048        0.7915149070       -0.3824252191
 H        -11.2452865298       -0.5721401165        1.6142150278
 H         -8.9453312813       -1.2328714074        2.2314365580
 H         -6.3987043598       -1.6392321275        2.4374427466
 H         -3.9272375830       -1.7138580950        2.2085431756
 H          0.0880061448       -1.6768585050        2.0223538591
 H          1.8602953576       -0.7487332225       -1.9665361673
 H          4.3028545069       -0.4826283778       -2.0421172625
 H          5.5901997159       -2.4672602100       -1.3086140888
 H          7.5419014159       -3.6470665451       -2.2429280402
 H          9.7972617470       -2.7140623584       -2.0469907194
 H         10.1784227587       -0.5701796991       -0.8747766802
 H          9.9092134028        1.7893750856        0.5071579851
 H          9.0580142279        3.7604368025        1.7345200851
 H          6.6609085858        4.0292835035        2.1569935969
 H          5.0374183313        2.3381168281        1.4009280215
 H          4.3727700416        0.1068992411        2.1877858941
 H          1.9243636053       -0.1080253353        2.2597049663
 H         -0.1329934027        0.5630300990       -1.6385271368
 H         -4.1158998607        0.6375336053       -1.3416859483
  67
  -101.366558782800       9.687946451828451E-002 !
 C         -7.1178302865        0.0802436181        2.6873054583
 C         -7.0534107117        0.7880473312        1.3303972459
 C         -6.7713591362        2.2816458367        1.5188032671
 C         -8.3211664632        0.5651659752        0.5370499629
 C         -9.6106402796        0.9440968308        0.8418116376
 C        -10.6287824028        0.6332895913       -0.0498268090
 C        -10.3590098199       -0.0474582792       -1.2271572265
 C         -9.0664234192       -0.4333743202       -1.5413499316
 C         -8.0478782710       -0.1237559555       -0.6544270441
 C         -6.6204386930       -0.3833432115       -0.7197038075
 C         -5.8550155485       -1.0169186719       -1.6878673553
 C         -4.4886598118       -1.1015476592       -1.5051354905
 C         -3.8830458857       -0.5650244322       -0.3664262465
 C         -2.4332103240       -0.6185847785       -0.2181359851
 N         -1.8969449587       -0.1082580620        0.8926690528
 C         -0.5863632344       -0.0906997155        0.9900148496
 C          0.2585708145       -0.5621639138       -0.0194626121
 C          1.7135628551       -0.4478244323        0.0403904661
 C          2.5394148865       -1.4350274964       -0.4965163268
 C          3.9113144053       -1.2874700004       -0.4936394469
 C          4.4924213383       -0.1457176935        0.0532343516
 N          5.8796867656        0.0322423254        0.0232460575
 C          6.8323879173       -0.8892687218        0.4129447148
 C          6.6691943346       -2.1496672159        0.9694010296
 C          7.8068057058       -2.8624954729        1.2970462745
 C          9.0801495607       -2.3375905662        1.0885420245
 C          9.2485338770       -1.0738157555        0.5593363728
 C          8.1203276452       -0.3384582157        0.2214896969
 C          7.9263411095        0.9780474757       -0.3187105527
 C          8.7965661699        1.9808164788       -0.7257911205
 C          8.2673443810        3.1481876015       -1.2384266970
 C          6.8900762542        3.3151765059       -1.3634609131
 C          6.0046308810        2.3321452584       -0.9649741883
 C          6.5296552741        1.1677454965       -0.4231576821
 C          3.6754319121        0.8316658755        0.6172080956
 C          2.3046861588        0.6818699030        0.6064436657
 C         -0.4102255258       -1.1204844587       -1.1135305084
 N         -1.7200625509       -1.1553724583       -1.2107952862
 C         -4.6595255942        0.0591742012        0.6159181562
 C         -6.0179311798        0.1483224682        0.4324245779
 H         -7.3221328272       -0.9793423539        2.5489509500
 H         -6.1712674684        0.1860966459        3.2115242106
 H         -7.9071286331        0.5092329312        3.3001288698
 H         -7.5567186770        2.7428716262        2.1131601190
 H         -6.7275959216        2.7805712089        0.5529569226
 H         -5.8202659172        2.4230526552        2.0261836502
 H         -9.8334935962        1.4751218164        1.7559378594
 H        -11.6439226667        0.9258005848        0.1763604174
 H        -11.1669307507       -0.2781950820       -1.9062560268
 H         -8.8576340707       -0.9624010003       -2.4593336066
 H         -6.3172004339       -1.4311919535       -2.5716141617
 H         -3.8606434584       -1.5783497383       -2.2412542884
 H         -0.1883509942        0.3055674067        1.9170366623
 H          2.1019047746       -2.3281720182       -0.9173125754
 H          4.5402600252       -2.0452152051       -0.9362078014
 H          5.6872309247       -2.5589700553        1.1532385218
 H          7.7059225546       -3.8479199144        1.7275526286
 H          9.9443334845       -2.9279048534        1.3544246099
 H         10.2346040826       -0.6594812390        0.4124917767
 H          9.8642946066        1.8434129871       -0.6452980025
 H          8.9260279103        3.9419322822       -1.5577728477
 H          6.5049231211        4.2319404550       -1.7850112493
 H          4.9400568162        2.4648013357       -1.0859881468
 H          4.1238253189        1.7047332668        1.0671271384
 H          1.6813027107        1.4589037073        1.0234275729
 H          0.1346756433       -1.5321944607       -1.9548685440
 H         -4.1694956043        0.4636270554        1.4876003233
  67
  -101.366523829800       9.336163378559602E-002 !
 C         -6.8955126905        0.5833895558        2.6828222531
 C         -7.0525605700        0.9582255048        1.2066897870
 C         -6.9594267438        2.4772612320        1.0270133033
 C         -8.3455141263        0.4234808854        0.6338495220
 C         -9.6402335223        0.6945995090        1.0204644021
 C        -10.6846500456        0.0808480802        0.3415636232
 C        -10.4350700672       -0.7893430996       -0.7085974322
 C         -9.1371471988       -1.0662172032       -1.1054497702
 C         -8.0924878108       -0.4561011510       -0.4298491473
 C         -6.6549949674       -0.5568501226       -0.6127764877
 C         -5.9020928735       -1.2818862028       -1.5250268244
 C         -4.5245269302       -1.1946816219       -1.4697167434
 C         -3.8953207814       -0.4020447511       -0.5073417372
 C         -2.4393587672       -0.3351280999       -0.4504171713
 N         -1.8854833120        0.2657223691        0.6052389589
 C         -0.5738100315        0.3120603446        0.6665388748
 C          0.2564299742       -0.2103392688       -0.3307714019
 C          1.7137715496       -0.1418800075       -0.2595939895
 C          2.5059131878       -1.1594690663       -0.7917259805
 C          3.8821510518       -1.0966988527       -0.7200659620
 C          4.5047621815       -0.0162248947       -0.0987839846
 N          5.8990147359        0.0439729343       -0.0092358091
 C          6.7269895572       -0.9754468667        0.4231029045
 C          6.4044837811       -2.2420403225        0.8889726008
 C          7.4392277832       -3.0666099518        1.2875792642
 C          8.7661007134       -2.6458767396        1.2377850320
 C          9.0912032811       -1.3766108015        0.8031780623
 C          8.0683372981       -0.5301467417        0.3968296129
 C          8.0405272616        0.8250381267       -0.0776152396
 C          9.0283888062        1.7691376412       -0.3240578494
 C          8.6548371338        3.0058592057       -0.8102605830
 C          7.3178178033        3.2985167588       -1.0689030289
 C          6.3173834992        2.3751480942       -0.8320780982
 C          6.6832389600        1.1409623095       -0.3140933803
 C          3.7209611183        1.0037550110        0.4364039407
 C          2.3460508815        0.9426683186        0.3492416863
 C         -0.4306934960       -0.8035062661       -1.3950998141
 N         -1.7419060459       -0.8779555246       -1.4501305379
 C         -4.6570594086        0.3297417993        0.4099179907
 C         -6.0269265559        0.2538530208        0.3470120655
 H         -7.6749801943        1.0540554330        3.2775281096
 H         -6.9667040371       -0.4951125972        2.8066373067
 H         -5.9274577004        0.9123739069        3.0525863740
 H         -7.7419283594        2.9738466220        1.5961990501
 H         -7.0736697161        2.7390365511       -0.0229422450
 H         -5.9932261390        2.8376055844        1.3717090080
 H         -9.8470984924        1.3706040217        1.8375000469
 H        -11.7042948830        0.2834478568        0.6355090134
 H        -11.2632415942       -1.2562959428       -1.2217322067
 H         -8.9446519574       -1.7445662597       -1.9233189404
 H         -6.3830655030       -1.9037774614       -2.2653465335
 H         -3.9073977166       -1.7419748678       -2.1649851287
 H         -0.1629372667        0.7702247424        1.5584860780
 H          2.0384791014       -2.0149600450       -1.2561324530
 H          4.4843397163       -1.8795008483       -1.1560626802
 H          5.3790112043       -2.5730860364        0.9529591630
 H          7.2128289528       -4.0589267643        1.6488988818
 H          9.5463917540       -3.3218243660        1.5544074027
 H         10.1174783343       -1.0423252184        0.7817317563
 H         10.0660470530        1.5342058678       -0.1411298990
 H          9.4066235567        3.7561383809       -1.0050876585
 H          7.0566801477        4.2678925209       -1.4673394656
 H          5.2873254252        2.6070836842       -1.0570124903
 H          4.1965926541        1.8350324655        0.9345961715
 H          1.7541928651        1.7515686875        0.7508756571
 H          0.0976675151       -1.2197728633       -2.2446866560
 H         -4.1483106489        0.9371235708        1.1419360154
  67
  -101.365448761900       2.992963664533238E-002 !
 C         -6.7960308004       -2.1632874966        1.7889670667
 C         -7.1054696164       -0.7238313829        1.3742523152
 C         -7.2707675534        0.1669551092        2.6119653324
 C         -8.3320076179       -0.6385421372        0.4941338404
 C         -9.6168127978       -1.0628549679        0.7555576061
 C        -10.5923392974       -0.8837073960       -0.2165066149
 C        -10.2864549510       -0.2827849446       -1.4278669330
 C         -8.9990968292        0.1518033813       -1.6972981876
 C         -8.0221112599       -0.0305664701       -0.7319788154
 C         -6.6036376379        0.2813884058       -0.7462811204
 C         -5.8145515758        0.8787185772       -1.7180343546
 C         -4.4595789901        1.0108077936       -1.4843583811
 C         -3.8874895283        0.5348219778       -0.3029879004
 C         -2.4409238678        0.5967952285       -0.1259024707
 N         -1.8906977320       -0.2050085531        0.7885121501
 C         -0.5785962840       -0.2443911329        0.8565725955
 C          0.2533731787        0.5367092016        0.0467103507
 C          1.7099144832        0.4325932825        0.0598171754
 C          2.4421461190        0.7027947339       -1.0980279356
 C          3.8148788390        0.5775507945       -1.1154272019
 C          4.4948718452        0.1699674331        0.0293267474
 N          5.8864154645        0.0240137249        0.0067723915
 C          6.5847483225       -1.1081140903        0.3776775883
 C          6.1068179544       -2.3342806266        0.8162255616
 C          7.0304885070       -3.3251405087        1.0886823338
 C          8.3971621804       -3.1101754209        0.9246107681
 C          8.8766176521       -1.8980020842        0.4698637043
 C          7.9680047921       -0.8863582268        0.1882686973
 C          8.1018461727        0.4532752057       -0.3128574357
 C          9.1915429885        1.2412523366       -0.6592357436
 C          8.9633601161        2.5317532248       -1.0936106994
 C          7.6700713724        3.0432528931       -1.1750826103
 C          6.5697160934        2.2788017904       -0.8373687075
 C          6.7924258455        0.9755395424       -0.4176075303
 C          3.7754844188       -0.0969672591        1.1914121620
 C          2.4023731359        0.0356381656        1.2046398317
 C         -0.4359699004        1.4131827582       -0.7994568704
 N         -1.7458317377        1.4281475165       -0.9029532645
 C         -4.6884045151       -0.0459127616        0.6853230643
 C         -6.0395695252       -0.1568258447        0.4632524088
 H         -7.5973068020       -2.5591841886        2.4086290515
 H         -6.6918301795       -2.7943061207        0.9089432459
 H         -5.8681680161       -2.1997504802        2.3545035525
 H         -8.0876224636       -0.1953270094        3.2318725095
 H         -7.4899377616        1.1895696597        2.3115929493
 H         -6.3564406982        0.1663032302        3.2004281469
 H         -9.8672804865       -1.5336810924        1.6951475833
 H        -11.6016769326       -1.2192954055       -0.0275294317
 H        -11.0611351342       -0.1549070633       -2.1699636263
 H         -8.7618484307        0.6177724511       -2.6421445151
 H         -6.2487824520        1.2286715453       -2.6427483420
 H         -3.8135030059        1.4661437558       -2.2187672106
 H         -0.1716718693       -0.9472605464        1.5736007823
 H          1.9269795513        0.9828882427       -2.0043780450
 H          4.3688684927        0.7700903717       -2.0220576852
 H          5.0481387392       -2.5142883830        0.9290643706
 H          6.6848779749       -4.2890838613        1.4320738635
 H          9.0870709670       -3.9099579529        1.1492062178
 H          9.9346806658       -1.7374531437        0.3277203529
 H         10.1949800388        0.8506166470       -0.5818616833
 H          9.7972868601        3.1613465671       -1.3661089505
 H          7.5244018745        4.0612701358       -1.5051906303
 H          5.5714703544        2.6873125563       -0.8884286870
 H          4.3034976950       -0.3939008617        2.0853515178
 H          1.8638360101       -0.1492538437        2.1218729231
 H          0.0883964134        2.1373751002       -1.4112437745
 H         -4.2239953813       -0.3969500043        1.5935019906
