  67
       -101.82919358
 C         -7.0051604484        2.4724556643        1.0399701780
 C         -7.0798005585        1.5070673890       -0.1469411072
 C         -6.9327461905        2.2692514672       -1.4673179485
 C         -8.3599625542        0.7029401424       -0.1181512980
 C         -9.6624800569        1.1468244618       -0.1933417743
 C        -10.6914292186        0.2154356835       -0.1475944219
 C        -10.4192050930       -1.1388282238       -0.0283860573
 C         -9.1133615672       -1.5942297060        0.0479053730
 C         -8.0842077840       -0.6675785618        0.0025543159
 C         -6.6438150785       -0.8446006927        0.0588088633
 C         -5.8726923682       -1.9919533781        0.1749712308
 C         -4.4972953528       -1.8690687501        0.2009838109
 C         -3.8876034405       -0.6153574096        0.1122471762
 C         -2.4330647885       -0.5088864236        0.1315756793
 N         -1.8924524776        0.7055980700        0.0083410010
 C         -0.5813506010        0.7975110801        0.0149716458
 C          0.2595188262       -0.3131426374        0.1330731827
 C          1.7163125273       -0.2112331670        0.1139366747
 C          2.3525684302        0.6990350935       -0.7298251171
 C          3.7286144323        0.7834780971       -0.7684307760
 C          4.5046537506       -0.0324651602        0.0519553610
 N          5.9003606631        0.0507630073        0.0127862147
 C          6.7699184011       -1.0145282222       -0.1257766480
 C          6.4962482425       -2.3652548559       -0.2854413227
 C          7.5659660935       -3.2275292793       -0.4326013099
 C          8.8796177347       -2.7642883573       -0.4320872849
 C          9.1571345898       -1.4184969774       -0.2996126304
 C          8.0985804965       -0.5325284121       -0.1493088979
 C          8.0182684210        0.8948821839       -0.0118703516
 C          8.9712661768        1.9027857457        0.0510768179
 C          8.5460546848        3.2058016689        0.2155480403
 C          7.1912059745        3.5072583982        0.3331974781
 C          6.2244531372        2.5217481111        0.2728100441
 C          6.6442256044        1.2133173197        0.0810851401
 C          3.8760342549       -0.9343758644        0.9077057658
 C          2.4998740244       -1.0266402642        0.9301118254
 C         -0.4125064517       -1.5324942355        0.2626811035
 N         -1.7228231964       -1.6308793731        0.2674195877
 C         -4.6680581474        0.5402132265       -0.0025884356
 C         -6.0360743377        0.4187821868       -0.0285220947
 H         -7.8003782253        3.2116097543        0.9763318028
 H         -7.1114361393        1.9273451230        1.9755578564
 H         -6.0480096404        2.9880919329        1.0451881476
 H         -7.7244812747        3.0080834641       -1.5670435452
 H         -6.9921082254        1.5803563611       -2.3073034173
 H         -5.9726312642        2.7782388714       -1.5022060000
 H         -9.8873549870        2.1994860217       -0.2864377949
 H        -11.7168938384        0.5499689499       -0.2060670204
 H        -11.2357113499       -1.8454688384        0.0050659716
 H         -8.9028907211       -2.6493599390        0.1403892834
 H         -6.3381422499       -2.9640791724        0.2421180779
 H         -3.8658517749       -2.7392724507        0.2882747357
 H         -0.1788251748        1.8010216739       -0.0602015433
 H          1.7620367333        1.3222044648       -1.3850929919
 H          4.2129286493        1.4684969682       -1.4480485032
 H          5.4816123575       -2.7335385122       -0.3070415815
 H          7.3785002107       -4.2841401552       -0.5548762956
 H          9.6881457829       -3.4705487830       -0.5477325874
 H         10.1740343065       -1.0565644071       -0.3167196127
 H         10.0220075406        1.6663570572       -0.0228894705
 H          9.2705465919        4.0051399765        0.2634882248
 H          6.8892936309        4.5340264373        0.4784762081
 H          5.1784280997        2.7644804107        0.3845702536
 H          4.4733590511       -1.5489310494        1.5643567344
 H          2.0233355305       -1.7180676125        1.6092896837
 H          0.1304443770       -2.4667167602        0.3461027580
 H         -4.1745785983        1.4970931836       -0.0691118321
