  59
  -96.3411121136000       0.676346326766231      !
 C          0.4109163612        3.5194016235       -0.4194504478
 C         -0.1890359430        2.4942262973       -1.1315700596
 C          0.3704234705        1.2297342605       -1.1449223398
 C          1.5372797804        0.9784031568       -0.4355262654
 C          2.1609865272        2.0251371259        0.2360398002
 C          1.5963864228        3.2905816173        0.2530202761
 S          3.7030872128        1.7473090006        1.0689748353
 C          4.3597988229        0.5245798596       -0.0328346921
 C          5.7247102400        0.4677718781       -0.2712375314
 C          6.2353049935       -0.4883775537       -1.1296844825
 C          5.3808136685       -1.3700749079       -1.7727626933
 C          4.0184407251       -1.3097799565       -1.5436618578
 C          3.4970391761       -0.3811536342       -0.6483497589
 N          2.1154352294       -0.3126669287       -0.3975958355
 C          1.3654526002       -1.3871262474        0.0013467610
 C          1.9673044431       -2.6317175253        0.3448432239
 C          1.1749657255       -3.6377224835        0.8080402402
 C         -0.2190076250       -3.4371171703        0.9566360941
 C         -1.1148638055       -4.4034661446        1.4463044750
 C         -2.4443644382       -4.1059756824        1.5902790154
 C         -2.9346658546       -2.8352528076        1.2532945140
 C         -2.0894089303       -1.8726867588        0.7680180606
 N         -2.5712287969       -0.5807280968        0.4077000082
 C         -2.8661774555       -0.3923938756       -0.9416018508
 C         -2.6913098476       -1.4304781980       -1.8587099359
 C         -2.9863621099       -1.2669732145       -3.2002741443
 C         -3.4532077392       -0.0548130769       -3.6732915252
 C         -3.6355823905        0.9870209426       -2.7810697880
 C         -3.3617387833        0.8174858653       -1.4347185506
 S         -3.7107941767        2.1776974780       -0.3555251847
 C         -2.5967303548        1.7964023615        0.9673274899
 C         -2.1832312747        2.8480495432        1.7656272653
 C         -1.3903194219        2.6174363951        2.8747714585
 C         -1.0360036343        1.3177284859        3.1844417050
 C         -1.4356733894        0.2687373952        2.3772228453
 C         -2.2002557019        0.4833954474        1.2303738899
 C         -0.7090453827       -2.1556172594        0.6027318429
 N          0.0754268787       -1.1794533125        0.1284078068
 H         -0.0356682625        4.5012969606       -0.3981787385
 H         -1.0985038157        2.6781127466       -1.6815327926
 H         -0.1009254533        0.4284620865       -1.6895288956
 H          2.0905014543        4.0804557810        0.7975339179
 H          6.3736419736        1.1711499698        0.2269621014
 H          7.2985351670       -0.5370124541       -1.3059901660
 H          5.7739436312       -2.1043258038       -2.4590328380
 H          3.3441944088       -1.9845316973       -2.0506397925
 H          3.0358549394       -2.7562584556        0.2693479418
 H          1.6026228544       -4.5908607466        1.0869731149
 H         -0.7360683291       -5.3805220654        1.7104494353
 H         -3.1296800137       -4.8485451805        1.9696004942
 H         -3.9840858109       -2.6108246417        1.3738328045
 H         -2.3226804873       -2.3841499985       -1.5154069871
 H         -2.8444095266       -2.0972373007       -3.8758101194
 H         -3.6805230495        0.0808145501       -4.7189149931
 H         -4.0128789893        1.9415626041       -3.1156794009
 H         -2.5079480832        3.8464624286        1.5149776312
 H         -1.0724996707        3.4405071099        3.4951599195
 H         -0.4415370603        1.1102950975        4.0615189594
 H         -1.1530175195       -0.7358969295        2.6477389072
  59
  -96.3400190662000       0.212735187779572      !
 C          0.2140148700        3.3603050724       -0.8920359843
 C         -0.2345384590        2.2719515377       -1.6224492537
 C          0.3838991263        1.0422621394       -1.4946409914
 C          1.4594315210        0.8912156112       -0.6299507569
 C          1.9249706431        1.9954511695        0.0743235217
 C          1.3008190910        3.2267245815       -0.0490838578
 S          3.3393698634        1.8291199845        1.1313256852
 C          4.2167891194        0.6204842772        0.1763758540
 C          5.6030126830        0.6397925566        0.1441505105
 C          6.2884603806       -0.2973534701       -0.6066925566
 C          5.5899883286       -1.2331909030       -1.3529559796
 C          4.2070485394       -1.2500334683       -1.3290453828
 C          3.5076625504       -0.3459825094       -0.5365973079
 N          2.1021638342       -0.3614217340       -0.4771977349
 C          1.3643836637       -1.4426945069       -0.0751405404
 C          1.9588793932       -2.6902144123        0.2671358475
 C          1.1555392508       -3.7008204930        0.7027150349
 C         -0.2379473485       -3.4946993880        0.8471821647
 C         -1.1444198962       -4.4566897598        1.3261623280
 C         -2.4659347136       -4.1381026451        1.4974130834
 C         -2.9375525275       -2.8479067896        1.2099566166
 C         -2.0835000560       -1.8914383813        0.7282437777
 N         -2.5258683832       -0.5685727982        0.4358324946
 C         -2.9308782271       -0.3373265703       -0.8780367004
 C         -2.9364478496       -1.3786802645       -1.8081135341
 C         -3.3585459079       -1.1847870557       -3.1109134963
 C         -3.7750940637        0.0634798692       -3.5340414439
 C         -3.7670918089        1.1123580531       -2.6318633684
 C         -3.3627651659        0.9147293684       -1.3222591602
 S         -3.4446731065        2.3084071293       -0.2346522438
 C         -2.2852187905        1.7993802889        1.0014428536
 C         -1.7140015186        2.7981890671        1.7705217781
 C         -0.8807052444        2.4824892016        2.8276843950
 C         -0.6556922740        1.1515051051        3.1242468065
 C         -1.2154512842        0.1543540999        2.3471497050
 C         -2.0105259190        0.4509112536        1.2390760401
 C         -0.7158251090       -2.2029980273        0.5163804582
 N          0.0739589898       -1.2316976247        0.0439564125
 H         -0.2785015564        4.3158172019       -0.9846355350
 H         -1.0726829011        2.3771579830       -2.2935573808
 H          0.0267156520        0.1892209303       -2.0485455911
 H          1.6706977447        4.0647995478        0.5209614719
 H          6.1299278338        1.3871672964        0.7167391899
 H          7.3672236654       -0.2882280164       -0.6196179743
 H          6.1215162724       -1.9506564724       -1.9590877580
 H          3.6557359828       -1.9658529209       -1.9210387848
 H          3.0277053691       -2.8189101331        0.2062509594
 H          1.5759368006       -4.6610221524        0.9681640406
 H         -0.7798377440       -5.4455789531        1.5650154065
 H         -3.1588072471       -4.8776331215        1.8690002116
 H         -3.9776799533       -2.6044609505        1.3677485305
 H         -2.6073375877       -2.3598483760       -1.5048956440
 H         -3.3549170349       -2.0194366343       -3.7960547775
 H         -4.1033465719        0.2233341509       -4.5491181494
 H         -4.0899487496        2.0992661122       -2.9286513635
 H         -1.9477065932        3.8260652943        1.5383734265
 H         -0.4355000342        3.2650799846        3.4215265045
 H         -0.0396331028        0.8782606488        3.9678219362
 H         -1.0337825275       -0.8747709725        2.6124225429
  59
  -96.3394036289000       0.110918485454197      !
 C          0.1340795238        3.2590858065       -1.1651293614
 C         -0.2426835603        2.1262659716       -1.8682914424
 C          0.4021500572        0.9233431845       -1.6503225375
 C          1.4296796319        0.8424720329       -0.7200597003
 C          1.8187008889        1.9881483368       -0.0369603886
 C          1.1705022715        3.1940735393       -0.2533576290
 S          3.1641382657        1.9048408928        1.1145002875
 C          4.1365316176        0.6916054766        0.2624785125
 C          5.5205805510        0.7575872950        0.3171274141
 C          6.2831110286       -0.1797459499       -0.3550422525
 C          5.6644965459       -1.1618267783       -1.1119775901
 C          4.2839738544       -1.2251344565       -1.1756731580
 C          3.5057903969       -0.3222140080       -0.4592433751
 N          2.1002844051       -0.3828992923       -0.4850423944
 C          1.3668612927       -1.4668094352       -0.0810771875
 C          1.9577594716       -2.7107227632        0.2786812172
 C          1.1465893920       -3.7258376832        0.6898827106
 C         -0.2501804895       -3.5237463785        0.8064916203
 C         -1.1663334401       -4.4875548339        1.2630645931
 C         -2.4879623816       -4.1638853484        1.4252020755
 C         -2.9492297559       -2.8649353948        1.1606215359
 C         -2.0862703314       -1.9069483150        0.6974869197
 N         -2.5039893190       -0.5683808440        0.4435782973
 C         -2.9649979034       -0.3024725544       -0.8451943335
 C         -3.0784618817       -1.3359126222       -1.7775054623
 C         -3.5680115988       -1.1138493552       -3.0519384624
 C         -3.9457994421        0.1563057754       -3.4455914676
 C         -3.8229963010        1.1985643671       -2.5444527252
 C         -3.3487837018        0.9742739002       -1.2626198424
 S         -3.2700705724        2.3746541450       -0.1843775865
 C         -2.1121304829        1.7819336687        1.0142687386
 C         -1.4587569019        2.7387048665        1.7716864474
 C         -0.6261850668        2.3672436375        2.8110363417
 C         -0.4918152651        1.0241939987        3.1079372509
 C         -1.1338508996        0.0685670372        2.3424688319
 C         -1.9205031172        0.4177528182        1.2430969327
 C         -0.7215984189       -2.2286502173        0.4807247829
 N          0.0742470478       -1.2587129198        0.0174191500
 H         -0.3790693310        4.1940106257       -1.3288428045
 H         -1.0451586335        2.1756255686       -2.5880374485
 H          0.1023826926        0.0362918587       -2.1848276908
 H          1.4819725671        4.0664781149        0.2999349990
 H          5.9847265898        1.5418450981        0.8946291629
 H          7.3596619790       -0.1330402840       -0.3009775978
 H          6.2568715727       -1.8784765746       -1.6599628698
 H          3.7966850122       -1.9751725057       -1.7810786741
 H          3.0280439495       -2.8355361337        0.2475068430
 H          1.5635627931       -4.6863503970        0.9598620242
 H         -0.8091951720       -5.4806755806        1.4955497689
 H         -3.1881883665       -4.9047759884        1.7800573146
 H         -3.9872005027       -2.6157433697        1.3241354796
 H         -2.7812509013       -2.3342453360       -1.4974823243
 H         -3.6489820193       -1.9439700039       -3.7375835156
 H         -4.3295330356        0.3383873635       -4.4371656219
 H         -4.1076097629        2.2034257907       -2.8188356761
 H         -1.6274538340        3.7800772783        1.5435510723
 H         -0.1117660952        3.1169510031        3.3912456911
 H          0.1187333670        0.7087355281        3.9407083824
 H         -1.0228318492       -0.9702668758        2.6098342736
