98
 energy: -153.141739587624 gnorm: 0.000059585713 xtb: 6.7.1 (edcfbbe)
C          -10.22214357216603        0.91237605979422        1.07039712301596
O           -9.00674981182022        1.13411895186125        1.75011275471590
C           -7.83682508270246        0.81336857128625        1.11534848707559
C           -6.66588583379833        1.04954284824752        1.83741572967045
C           -5.43405800633986        0.75460257650167        1.29790822707006
C           -5.33008271237885        0.22468812456280        0.00926423043227
N           -4.07948175747693       -0.06648921032712       -0.54477517470813
C           -3.91529012908280       -1.18313141935897       -1.37193393862807
C           -3.06161929278518       -1.13224456585074       -2.47670301929913
C           -2.89794248766373       -2.23245997117057       -3.28777631959149
C           -3.58822880146377       -3.41815629771159       -3.03055960010147
O           -3.35752477106907       -4.44669097491635       -3.90417490400659
C           -4.02176838807072       -5.67195680308246       -3.68992131987336
C           -4.44217339977738       -3.47450313780580       -1.93542929066691
C           -4.59502159178463       -2.37065145746652       -1.11525094367115
C           -2.98022009196354        0.76236842218948       -0.26808904668894
C           -3.15542196724013        2.15425237509946       -0.21954876957898
C           -2.10667475814661        3.00781790610889        0.04952403507204
C           -0.85210490895611        2.45477051866957        0.26628875937120
C           -0.65465508824141        1.05610435122360        0.19899550992860
C           -1.72295891543891        0.20956857729924       -0.05676093364377
C            0.74321461572495        0.83211051240596        0.44113709780553
C            1.52396119165701       -0.31226104796532        0.51109857257338
C            2.87773548170275       -0.18338776447879        0.79622684711233
N            3.69482393772508       -1.32219700676912        0.88645983164591
C            4.99059446828086       -1.29028594803098        0.36035967073537
C            6.04116877348106       -1.95326064727904        0.99972764376444
C            7.31402034314399       -1.91814078128378        0.47650667329078
C            7.58543585108420       -1.20958987230716       -0.69532093688149
O            8.88561609185242       -1.23623705853356       -1.12296783832017
C            9.21959731891682       -0.53520098172486       -2.30009763227538
C            6.54681875899420       -0.54049235646373       -1.33175970746649
C            5.26620993395037       -0.58866945477911       -0.81030015496007
C            3.20683012736103       -2.48337517293383        1.49501142962608
C            2.35902781775901       -2.40666368166319        2.60295283138870
C            1.87836113454454       -3.55095865695452        3.19856431831073
C            2.23605665356588       -4.81143008302465        2.71703669749335
O            1.70813408722793       -5.88094692172568        3.38945814826204
C            2.03339810097255       -7.17975211376771        2.94708304713994
C            3.08157795149740       -4.89521194839155        1.61722288576977
C            3.55200769264250       -3.74299543032675        1.01260298284755
C            3.43501471273591        1.08748699238064        1.00845971577403
C            2.67623958572593        2.23541262482558        0.92650922444301
C            1.32545432480364        2.10679476305989        0.63146512264571
N            0.35292908467496        3.07844249266328        0.51285272538816
C            0.53086340656061        4.46095166176158        0.70576837676533
C           -0.15651709801114        5.09446394500113        1.71309227713102
C            0.00947141013625        6.46694131563143        1.93757007936063
C            0.86921756450670        7.19340863836471        1.16193538964926
C            1.58031201275846        6.58168442268866        0.10804666751177
C            2.45557692486565        7.31773749018626       -0.71930381393406
C            3.10818544947778        6.71849129350499       -1.75975312907172
C            2.90636209128943        5.35567888351959       -2.02695769453686
C            2.07456218015551        4.61021616588976       -1.23845665354833
C            1.40383655171359        5.19432966053675       -0.14290844380169
C           -6.50097678639317       -0.00102745960263       -0.70964904080854
C           -7.74103613198728        0.28153515533217       -0.16525852837455
H          -10.35907464584057       -0.14705172980260        0.83169020230156
H          -10.28146915145080        1.50557089682397        0.15243669350532
H          -11.00356040284318        1.23190246238576        1.75821851182323
H           -6.75021158072125        1.45878052781496        2.83235478267944
H           -4.53802983396194        0.93346072775804        1.87319608718440
H           -2.52605988166608       -0.22014800468512       -2.69358885963750
H           -2.23999518801479       -2.19609323378178       -4.14231317354735
H           -3.69018472785476       -6.32755887960063       -4.49372560327409
H           -5.10847214412098       -5.55257212039243       -3.74359741602272
H           -3.74833667460125       -6.11183592737613       -2.72566524336564
H           -4.98911017154275       -4.37390919631752       -1.70082662363480
H           -5.25412017134454       -2.43177746567260       -0.26172164550228
H           -4.13994860015594        2.55862254572199       -0.40258561186927
H           -2.25790320833193        4.07640453518351        0.07584048986061
H           -1.58179570452111       -0.85979049624823       -0.09943520871699
H            1.08818176255937       -1.28751075646022        0.35545157604430
H            5.85006834548686       -2.49641626082013        1.91318643872974
H            8.12777728929427       -2.42922990157217        0.96752556392857
H           10.28760193585004       -0.69418318056395       -2.44090426649921
H            8.67671816607163       -0.92633576556485       -3.16630325206020
H            9.02202720430634        0.53638864944847       -2.19662545871003
H            6.71619159019900        0.01604739470410       -2.23984035278846
H            4.46649669665289       -0.07186711939649       -1.31997734225719
H            2.07931221768236       -1.43984938733566        2.99386290336224
H            1.22401149708587       -3.49509970487408        4.05485461385876
H            1.51070800016679       -7.85653047473390        3.62130661438354
H            3.11030433031993       -7.36552538652647        3.00880520801360
H            1.69021924549656       -7.35093922277674        1.92189526527613
H            3.37735554617444       -5.85021808236340        1.21275684440281
H            4.20037442342528       -3.82334022110292        0.15247693641266
H            4.48621237521709        1.15802028102220        1.24557756094218
H            3.12127087495748        3.20399934774424        1.09698679351185
H           -0.82228296688926        4.52165183780821        2.34228762504302
H           -0.53988925230101        6.93905163133634        2.73861441388175
H            1.01152780338314        8.24950593678436        1.33903648100852
H            2.59464704349670        8.36991459810645       -0.51565252845670
H            3.77512733439735        7.29012637971428       -2.38867756934582
H            3.41179353863858        4.89768119098258       -2.86467191556320
H            1.91798518368784        3.56402590543256       -1.45463366531858
H           -6.44026481593931       -0.40379238766949       -1.71007669444864
H           -8.62245752919720        0.08951798200275       -0.75628645347955
