  68
       -103.02172526
 C         -7.3121196705        1.2401518346       -0.1485706356
 C         -6.4197691913       -0.0071583363       -0.0034290890
 C         -7.2906131422       -1.2697369234        0.1402439687
 C         -5.5748102473        0.1432118050        1.2442159400
 C         -6.1902936728        0.2798333343        2.4805711721
 C         -5.4631112566        0.4158717289        3.6489227376
 C         -4.0778540696        0.4143276144        3.5954581748
 C         -3.4392593308        0.2805114052        2.3838175862
 C         -4.1724847792        0.1465150123        1.1961760288
 N         -3.5019302262        0.0175647943       -0.0003741586
 C         -2.0763554073        0.0180330603        0.0021918989
 C         -1.3750802919        1.2245231100       -0.0731933979
 C         -0.0041762002        1.2251921240       -0.0708345748
 C          0.7180534726        0.0146688144        0.0059805685
 C          2.1355912554        0.0096774315        0.0063932592
 N          2.8225324673        1.1773027604       -0.0560148804
 C          4.1293395427        1.1433970388       -0.0510760328
 C          4.8737681265        2.3939010089       -0.1166156786
 C          4.2023235429        3.6164577336       -0.1741329095
 C          4.9153878013        4.7958382648       -0.2380107792
 C          6.3027704873        4.7741245396       -0.2453945616
 C          6.9756739439        3.5630711266       -0.1878755415
 C          6.2694786253        2.3789221830       -0.1236503769
 N          4.8300578920       -0.0068730347        0.0103494305
 C          4.1157119778       -1.1490150670        0.0648712623
 C          4.8416117888       -2.4103868089        0.1227588547
 C          4.1504087518       -3.6228189399        0.1590205903
 C          4.8437875657       -4.8142498541        0.2112827340
 C          6.2312325364       -4.8148074659        0.2285940152
 C          6.9236774993       -3.6140113918        0.1931500118
 C          6.2371683875       -2.4176936411        0.1403310877
 N          2.8087521365       -1.1655013310        0.0669963407
 C         -0.0076879243       -1.1939636931        0.0815643010
 C         -1.3782699453       -1.1901833952        0.0801234582
 C         -4.1677159281       -0.1215962923       -1.1984123859
 C         -3.4298306214       -0.2416125032       -2.3846678676
 C         -4.0634974113       -0.3848110294       -3.5978238680
 C         -5.4483927241       -0.4106229862       -3.6541351140
 C         -6.1802065148       -0.2886566589       -2.4871332538
 C         -5.5697766430       -0.1421696256       -1.2494217133
 H         -7.9520654373        1.3615454968        0.7207350214
 H         -6.6923089166        2.1293137658       -0.2463860739
 H         -7.9439750332        1.1635968849       -1.0287470328
 H         -7.9229153505       -1.4051586607       -0.7325347041
 H         -7.9291449763       -1.2017690783        1.0163477268
 H         -6.6559721711       -2.1475857899        0.2446212709
 H         -7.2679552592        0.2804435821        2.5409426428
 H         -5.9738336760        0.5206660345        4.5937409965
 H         -3.4963571660        0.5171970448        4.4988244561
 H         -2.3617382565        0.2772006520        2.3395208937
 H         -1.9295638722        2.1502538780       -0.1337525553
 H          0.5502323648        2.1485699480       -0.1296958261
 H          3.1231719865        3.6176868608       -0.1677983999
 H          4.3918803050        5.7400750499       -0.2830177104
 H          6.8576882265        5.6995397548       -0.2963831066
 H          8.0560290032        3.5462205581       -0.1936957081
 H          6.7778128239        1.4282633607       -0.0787823966
 H          3.0715801012       -3.6062304453        0.1445344520
 H          4.3048919178       -5.7504346154        0.2384872192
 H          6.7709169316       -5.7496868229        0.2699057736
 H          8.0041808283       -3.6147005035        0.2074130770
 H          6.7611351653       -1.4749373280        0.1120976154
 H          0.5443919265       -2.1185849544        0.1427996033
 H         -1.9351855196       -2.1145004048        0.1406543254
 H         -2.3526025237       -0.2196491604       -2.3380885323
 H         -3.4784852097       -0.4761147114       -4.5001785814
 H         -5.9553136624       -0.5235550637       -4.6000730430
 H         -7.2576011689       -0.3083339507       -2.5497615827
