  68
       -103.09852422
 C         -7.2937436358        1.1172707157        0.5778322416
 C         -6.4070933682       -0.0052296957        0.0084194713
 C         -7.2806172934       -1.1395642065       -0.5583114286
 C         -5.5525385899       -0.5625764204        1.1306782586
 C         -6.1676505536       -1.1076304355        2.2495798498
 C         -5.4437268402       -1.6074000407        3.3159382709
 C         -4.0623522440       -1.5509731827        3.2795227834
 C         -3.4254139872       -1.0165744606        2.1796190987
 C         -4.1547723147       -0.5347395093        1.0883768287
 N         -3.4860113756       -0.0106358662       -0.0083270718
 C         -2.0676013615       -0.0076633730       -0.0127643369
 C         -1.3722595136        1.1802057600        0.1958613949
 C          0.0070678741        1.1822898815        0.1956086598
 C          0.7103712125       -0.0029737439       -0.0130186907
 C          2.1731096942       -0.0008762405       -0.0095176412
 N          2.7937826346        1.1570756919        0.1965753963
 C          4.1231060267        1.1133473995        0.1960476227
 C          4.8522272248        2.3597281163        0.4305606636
 C          4.1590352559        3.5583684959        0.5890657238
 C          4.8510038891        4.7324853732        0.8136705533
 C          6.2358242377        4.7214166614        0.8834719177
 C          6.9299974271        3.5316806816        0.7262998184
 C          6.2442501398        2.3542297164        0.5000368352
 N          4.8295909440        0.0041786599       -0.0033547149
 C          4.1284516345       -1.1075315521       -0.2038366355
 C          4.8624579060       -2.3523911804       -0.4312887239
 C          4.1737524727       -3.5540653672       -0.5847134281
 C          4.8700109621       -4.7272408677       -0.8007793246
 C          6.2546574587       -4.7121432416       -0.8670254816
 C          6.9444346418       -3.5191944148       -0.7154378073
 C          6.2543496172       -2.3427111673       -0.4975008392
 N          2.7987913084       -1.1563608027       -0.2106132719
 C          0.0109770825       -1.1903248074       -0.2233838705
 C         -1.3684231076       -1.1929359976       -0.2235631872
 C         -4.1653176940        0.5253934625       -1.0924736566
 C         -3.4467391988        1.0106921269       -2.1893275917
 C         -4.0941020038        1.5571826557       -3.2771015195
 C         -5.4754689630        1.6213180451       -3.2961550377
 C         -6.1890449931        1.1166041078       -2.2252616812
 C         -5.5632968314        0.5608813535       -1.1175983462
 H         -7.9313512476        1.5382916124       -0.1945778821
 H         -7.9291378714        0.7440780035        1.3761672592
 H         -6.6695936978        1.9133712413        0.9797446556
 H         -7.9222278364       -0.7746195144       -1.3556334902
 H         -7.9101725461       -1.5684514650        0.2164756154
 H         -6.6470443777       -1.9276154369       -0.9613545498
 H         -7.2455567428       -1.1449444205        2.2967807328
 H         -5.9546751786       -2.0253731472        4.1698513762
 H         -3.4765156523       -1.9188397299        4.1085904037
 H         -2.3476424618       -0.9652402020        2.1660463067
 H         -1.9254401018        2.0941325094        0.3556341578
 H          0.5604914848        2.0928731235        0.3610826662
 H          3.0820301799        3.5480125839        0.5310498544
 H          4.3121623725        5.6608426649        0.9355662094
 H          6.7743090828        5.6408494555        1.0613091635
 H          8.0082840597        3.5252629393        0.7834589131
 H          6.7670548961        1.4187809795        0.3766697618
 H          3.0966056460       -3.5467830220       -0.5293656509
 H          4.3347845679       -5.6581120111       -0.9183546256
 H          6.7965666439       -5.6310500050       -1.0373866079
 H          8.0233031290       -3.5097025706       -0.7687231539
 H          6.7736484829       -1.4047555179       -0.3792792283
 H          0.5675163968       -2.0990866631       -0.3885476696
 H         -1.9186062067       -2.1085707447       -0.3835304882
 H         -2.3692053259        0.9511570819       -2.1901890829
 H         -3.5162909109        1.9280372549       -4.1106019955
 H         -5.9942154644        2.0497939454       -4.1400822063
 H         -7.2673422155        1.1579034052       -2.2599538843
