68
 energy: -103.098451056607 gnorm: 0.000035263245 xtb: 6.7.1 (edcfbbe)
C           -6.89607159774191        1.26299603466459        0.00075849230237
C           -6.01564351627333       -0.00000233207682       -0.00009097217970
C           -6.89596260986225       -1.26308023850834       -0.00101331438540
C           -5.16652501866674       -0.00084450055469        1.25727422801290
C           -5.78352915805329       -0.00170274117839        2.50054140363130
C           -5.06059389142519       -0.00239239560496        3.67923637029971
C           -3.67856202881902       -0.00217648327234        3.62554169233159
C           -3.03902273090908       -0.00132639572055        2.40393500623402
C           -3.76860849623775       -0.00071388448618        1.21160409665345
N           -3.09759591203381        0.00011902106288        0.00003098670210
C           -1.67575017974645        0.00010250465702        0.00008069210839
C           -0.98086247933544        1.20522885977908       -0.00025825891770
C            0.39909070581170        1.20495441269758       -0.00023047185225
C            1.09944131158910        0.00004179502905        0.00008393530774
C            2.56335180673212        0.00000622219508        0.00007501122108
N            3.18593624499234        1.17442204468024       -0.00008287418100
C            4.51573229390273        1.12835979538230        0.00017300554500
C            5.24837049044916        2.39443134856803        0.00065769712194
C            4.55774894641542        3.60481883255117       -0.00290255332150
C            5.25374159074083        4.79788082319265       -0.00236448774428
C            6.64003278278229        4.79442910231890        0.00179930895600
C            7.33177784123335        3.59301469540929        0.00539953102050
C            6.64194961287179        2.39645130492531        0.00480237921859
N            5.21901766014613       -0.00006187856722        0.00002419663540
C            4.51567479889680       -1.12844767515694       -0.00011299394974
C            5.24824746008931       -2.39455731734736       -0.00059976312810
C            4.55756204356644       -3.60490885043983        0.00280728413837
C            5.25349180754712       -4.79800747767821        0.00224694189603
C            6.63978358004297       -4.79462841047835       -0.00177476069901
C            7.33159216752470       -3.59325009812723       -0.00521431525685
C            6.64182690795138       -2.39665033398614       -0.00460119532232
N            3.18587655461531       -1.17444141772026        0.00019333608795
C            0.39903722935948       -1.20483934667063        0.00040755034222
C           -0.98091481281694       -1.20505356823669        0.00043841539900
C           -3.76850811412040        0.00089195930470       -1.21159957845547
C           -3.03882517436596        0.00159941398275       -2.40387113085287
C           -3.67826361265743        0.00241770677231       -3.62553055740375
C           -5.06029086009349        0.00250027159505       -3.67933955336806
C           -5.78332274496462        0.00173970809889       -2.50070402170888
C           -5.16642097354611        0.00093184252725       -1.25738575403342
H           -7.53202034303855        1.29367839916845       -0.87965896562758
H           -7.53210955129617        1.29243246101911        0.88115177383823
H           -6.26759277274929        2.15169446598487        0.00141831813719
H           -7.53192219475479       -1.29257865366907       -0.88146193101286
H           -7.53198877443756       -1.29381835759104        0.87934716318638
H           -6.26741102701911       -2.15172637235389       -0.00161453612515
H           -6.86164687219387       -0.00184280415557        2.55799433527949
H           -5.57315637131208       -0.00306545601352        4.62914499057490
H           -3.09461785360492       -0.00265442410485        4.53392447092202
H           -1.96015843146520       -0.00110810224406        2.36770628659568
H           -1.53357556168483        2.13310523679381       -0.00053362693702
H            0.95448335147318        2.12928879994048       -0.00040092684393
H            3.47931735551046        3.58828686259080       -0.00617124259534
H            4.71703866721730        5.73531929291992       -0.00523019156114
H            7.18192775436178        5.72896118784781        0.00225274375308
H            8.41196525733168        3.59278724307640        0.00874499097302
H            7.16297577825553        1.45208467421949        0.00769230235250
H            3.47913090254058       -3.58832035407155        0.00593710553390
H            4.71673908017390       -5.73541785767526        0.00498790331510
H            7.18162951931505       -5.72918897344748       -0.00220993232505
H            8.41178001651808       -3.59307940648183       -0.00842731229040
H            7.16290337840928       -1.45231107685844       -0.00737716796680
H            0.95438735989313       -2.12919843526392        0.00059797583770
H           -1.53366944666692       -2.13290495577741        0.00070736260961
H           -1.95996407753367        0.00150411749500       -2.36755697475317
H           -3.09424357302095        0.00294680206500       -4.53386453090245
H           -5.57277479796926        0.00313101793555       -4.62929047317306
H           -6.86143569784324        0.00174331506103       -2.55824591520546
