68
 energy: -103.098575332672 gnorm: 0.000030458623 xtb: 6.7.1 (edcfbbe)
C           -7.28678442993981        1.11918546717816        0.57951292294103
C           -6.40710311457713       -0.00620129051679        0.00488542525472
C           -7.28757621327422       -1.13121999560796       -0.56921935655410
C           -5.55769833406114       -0.57444282023633        1.12559111533043
C           -6.17787113664312       -1.13210118822308        2.23540259921207
C           -5.45885852045590       -1.64033069791411        3.30102227984020
C           -4.07745371005540       -1.57932243841722        3.27362826179636
C           -3.43552646877623       -1.03165129647287        2.18320225069828
C           -4.15981319571149       -0.54133591217926        1.09241239711279
N           -3.48599919174146       -0.00351040797704        0.00570840169626
C           -2.06754471652125       -0.00198221690457        0.00594556727103
C           -1.37161693938356        1.18347705681303        0.22602529404078
C            0.00776892369190        1.18492547822162        0.22493655461096
C            0.71041001263273        0.00138389387291        0.00448816270780
C            2.17319348019996        0.00301786202883        0.00262698277380
N            2.79548289207878        1.16113342362171        0.20067424167276
C            4.12503374723513        1.11637833853626        0.19359229508979
C            4.85576971943820        2.36469442738486        0.41245532183871
C            4.16277154401414        3.56046709534511        0.59101181419340
C            4.85591160478993        4.73722675499901        0.79723144331799
C            6.24185560790970        4.73178860389532        0.82776955375779
C            6.93595057133008        3.54481334734075        0.65113605595142
C            6.24891864509267        2.36464443200806        0.44384871635697
N            4.82961229711915        0.00547389260680       -0.00099367795432
C            4.12658583835370       -1.10663736890141       -0.19428197261419
C            4.85887635236683       -2.35338808081319       -0.41681025865044
C            4.16731277990418       -3.54918295332085       -0.60068367120212
C            4.86188613461680       -4.72430160162931       -0.81138411857565
C            6.24784172199668       -4.71722419401064       -0.84090021147462
C            6.94051820430744       -3.53024903605732       -0.65876600753975
C            6.25204356281592       -2.35168238176636       -0.44720986922309
N            2.79713804161865       -1.15383302589812       -0.19762649239666
C            0.01034446089283       -1.18393227501905       -0.21477419447134
C           -1.36899852011252       -1.18585702835950       -0.21442877050153
C           -4.16021719697757        0.53157893814061       -1.08211201008355
C           -3.43622786515506        1.02192100716471       -2.17309508088677
C           -4.07854881820653        1.56702978590096       -3.26456632936297
C           -5.46004564665634        1.62558037329662       -3.29275808409538
C           -6.17871045841148        1.11736659106458       -2.22690302092900
C           -5.55813378795112        0.56195839171511       -1.11618521600747
H           -7.92000629102293        1.54910332238961       -0.19164193303978
H           -7.92555013730855        0.74553958521226        1.37498867897788
H           -6.65766502486805        1.90851803677027        0.98688027725630
H           -7.92673178642932       -0.75737680261418       -1.36427276383562
H           -7.92058676846732       -1.56089021592802        0.20222732769039
H           -6.65903017863430       -1.92080998570995       -0.97696529758819
H           -7.25594925244261       -1.17173776232768        2.27632777314112
H           -5.97344253624661       -2.06981158028374        4.14701915798093
H           -3.49540706852778       -1.95435122845050        4.10227665489801
H           -2.35785424699288       -0.97615773391290        2.17687351169710
H           -1.92434158485258        2.09599085674779        0.39484760063902
H            0.56159815469204        2.09393674543019        0.39762768914027
H            3.08465258844541        3.54560484566278        0.56378158731385
H            4.31724489822262        5.66338527382639        0.93491772325194
H            6.78158222730036        5.65351452454729        0.98946261286471
H            8.01587147158825        3.54304206959881        0.67571758811703
H            6.77185763116416        1.43159207897535        0.30497418515256
H            3.08915452139471       -3.53562628661218       -0.57434679443990
H            4.32433765530038       -5.65044493857309       -0.95347623815009
H            6.78868241683803       -5.63767566437251       -1.00608935658176
H            8.02045624291764       -3.52719630037603       -0.68248771079067
H            6.77380922154282       -1.41859816703410       -0.30420991127765
H            0.56624735564068       -2.09156025068597       -0.38803431088117
H           -1.91970049281309       -2.09968053162564       -0.38276939159877
H           -2.35845792925051        0.96847955952651       -2.16611216059265
H           -3.49670487865579        1.94202984365285       -4.09337030989790
H           -5.97491666185105        2.05320193376134       -4.13952074673635
H           -7.25683229672163        1.15531466706601       -2.26828373514889
