76
 energy: -117.305576578359 gnorm: 0.000063052156 xtb: 6.7.1 (edcfbbe)
O            7.41044282528870        3.41109823669649        0.62162733717619
C            7.52013347702641        2.24622152711232        0.29220141873977
C            8.83657187589099        1.66197729270539       -0.07302650361671
C            9.17012769762953        0.34709502959426        0.24447517031329
C           10.42017902279608       -0.14702620098251       -0.08018589128501
C           11.34207044300204        0.65910268373051       -0.72875171456796
C           11.02060593286101        1.97149030149534       -1.03651940847788
C            9.77841482201580        2.47452954755714       -0.70025931445920
C            6.34609174516510        1.34175311279950        0.23806776995551
C            5.27480132778350        1.58499688236899        1.09742520172540
C            4.15699290982279        0.77959597085239        1.07595655990315
C            4.07483122792284       -0.27477174161188        0.16611985458654
N            2.94275678754143       -1.09003248995683        0.13416648101889
C            2.93868718777134       -2.47360650672543        0.11963194023612
C            4.00157658532995       -3.36288618155881        0.17886106365055
C            3.71325638988668       -4.71475740821339        0.18321976610082
C            2.40114167590015       -5.17917610893950        0.14059162503095
C            1.33811401693205       -4.29856890791342        0.10944218366879
C            1.60334846009515       -2.93611378939446        0.10381021289600
C            0.76530886615871       -1.76854523208385        0.09799326079882
C           -0.60818099069915       -1.58874200844822        0.06065905590107
C           -1.12432813247101       -0.29872204739539        0.04113984851438
C           -2.57564042215090       -0.07829870924199        0.01143030287987
C           -3.16064625380282        0.95131809711803        0.74734123544891
C           -4.52399927753646        1.15478037939010        0.72977012768377
C           -5.35136742044662        0.33688511583229       -0.03994412503827
N           -6.73425697596086        0.54327235732824       -0.06523272657628
C           -7.24667105530421        1.84489872847494       -0.04021949471585
C           -8.41930730517428        2.13144083794676        0.65863627911814
C           -8.92310424691061        3.41733267087462        0.67540006531254
C           -8.26635491362034        4.43799435327635        0.00758872974484
C           -7.09843876166320        4.16002204362004       -0.68353379187461
C           -6.59137797150799        2.87571302389698       -0.71386651801148
C           -7.60246315808443       -0.55247732191228       -0.11875541867573
C           -8.77940891606194       -0.48854626126791       -0.86461707753828
C           -9.63463448515062       -1.57212599901594       -0.90985643965456
C           -9.33022792483892       -2.73655289486153       -0.22393277430702
C           -8.16015916195275       -2.80725560235900        0.51424703098241
C           -7.30272186997260       -1.72613695027153        0.57302112119768
C           -4.77205705620219       -0.69101751383681       -0.78420880836448
C           -3.40920520000234       -0.89523000985989       -0.75133346818627
C           -0.24689458090068        0.79467052161242        0.03722346867517
C            1.12351281733478        0.63796492739001        0.07014005440400
C            1.63061230368919       -0.65233057572430        0.12292337422307
C            5.13011619902352       -0.50239716131269       -0.71731649695459
C            6.25661847796657        0.29264846289563       -0.67609825177672
H            8.46017417766054       -0.27739622822241        0.76731616028508
H           10.67777424097480       -1.16472945144439        0.17417843802360
H           12.31438488064748        0.26598746412252       -0.98678844160626
H           11.74210067441458        2.60293373503713       -1.53340775905078
H            9.51353945472275        3.49748344385351       -0.92285894200391
H            5.34846777574736        2.40717421775176        1.79350429943425
H            3.34759348027622        0.94786291704709        1.77000593690132
H            5.02240951068956       -3.01600687562902        0.23333824114289
H            4.52451519738365       -5.42646719011421        0.22487662091934
H            2.21744049335441       -6.24318623270404        0.14306587739042
H            0.31990030084911       -4.65676527700805        0.09583028327464
H           -1.26743816176767       -2.44338308200702        0.06390445347720
H           -2.54060869826737        1.58229301574150        1.36711065292678
H           -4.96166150351166        1.94722476210956        1.31934638381327
H           -8.92821099652452        1.33983936745528        1.18905989608371
H           -9.83137986767500        3.62536544589367        1.22182610904682
H           -8.66168352964510        5.44226122250710        0.02563659418534
H           -6.58195700311268        4.94814723084785       -1.21170455475907
H           -5.68630319491880        2.65983927909959       -1.26265702828590
H           -9.01452475954838        0.41435553556168       -1.40907014973586
H          -10.54190490337882       -1.50930156343576       -1.49272887838776
H           -9.99970904880544       -3.58233722530632       -0.26434371696921
H           -7.91673614595604       -3.70909317347974        1.05677914478291
H           -6.39622734794051       -1.78047385026760        1.15805053554062
H           -5.40070764568894       -1.32355862549524       -1.39399520199274
H           -2.97845583524476       -1.68266952116136       -1.35223962154905
H           -0.65793066237213        1.79157497439937       -0.01967908302409
H            1.77570467192115        1.49754796380403        0.03778297499304
H            5.04833000344221       -1.29261534464225       -1.44841246213791
H            7.05780884630368        0.12119559967249       -1.37988953188170
