76
 energy: -117.223450849444 gnorm: 0.000125746187 xtb: 6.7.1 (edcfbbe)
O            7.43676066607368        3.13422759853801        1.26032759706106
C            7.53016171830859        2.04233712078237        0.62502241553279
C            8.81851581651469        1.67596781888812        0.02413814364987
C            9.24885967767026        0.34780082557832       -0.05728277971823
C           10.48347947261630        0.05180659294102       -0.59885943015108
C           11.31547296294946        1.06410104790158       -1.05420244232073
C           10.91033765875203        2.38585235794840       -0.94057801626445
C            9.68125811661874        2.69478623097236       -0.39754849308948
C            6.38777689282859        1.18426722136039        0.47361771829267
C            5.26834989023765        1.41036520268917        1.31273451172782
C            4.14801810877155        0.63165365158784        1.22011715793108
C            4.07025234297696       -0.38861147326558        0.26167318104340
N            2.92682532631705       -1.19211502255187        0.16740967563339
C            2.91359380237945       -2.57279153262964        0.12597513916432
C            3.97285401586311       -3.46701475554857        0.18769811473210
C            3.67972432680856       -4.81752136360376        0.14708227369771
C            2.36700376977560       -5.27386125238192        0.05475841066341
C            1.30584796273316       -4.38824071574700        0.01693516220012
C            1.57516552281239       -3.02837609100721        0.05833394052495
C            0.74765167025391       -1.85288181923384        0.06001548041054
C           -0.61815983623763       -1.65254609231951        0.00770656332506
C           -1.12006567735823       -0.35078719987237        0.02134893990473
C           -2.56082406901553       -0.11333575414345       -0.01039712355027
C           -3.13227053064333        0.95219560936205        0.69242096625720
C           -4.49008658269793        1.17409608410647        0.67473215131285
C           -5.33658341397066        0.33850801594511       -0.05979316893425
N           -6.71081793159799        0.56222038906575       -0.08379679989452
C           -7.21171047221928        1.86914639795227       -0.04259229609890
C           -8.36998555897049        2.15769903073168        0.67921604448062
C           -8.86367385322707        3.44715088599657        0.71207727822255
C           -8.21210475164493        4.46544113500625        0.03490471603782
C           -7.06019262695439        4.18374172881912       -0.68182492675842
C           -6.56130880596003        2.89665896142864       -0.72622805606524
C           -7.59979601566053       -0.51734840151305       -0.14711709708493
C           -8.76741472385243       -0.42515125355767       -0.90492500795104
C           -9.64576916605107       -1.48957917797974       -0.95844232144354
C           -9.37425861629251       -2.65887369792794       -0.26628931876403
C           -8.21459658197031       -2.75581951342019        0.48584466403906
C           -7.33225186678168       -1.69529656770827        0.55086253304013
C           -4.77377038034711       -0.72610396842449       -0.76986787347849
C           -3.41580893971351       -0.94599038020984       -0.73935003281602
C           -0.22410424032179        0.73369203121971        0.05917655488059
C            1.13993186469302        0.55712211062370        0.10214799471654
C            1.63244030788872       -0.74468557518165        0.12709957866986
C            5.14257341667250       -0.58005321050715       -0.61922568790511
C            6.27011919420109        0.19439225704414       -0.52670841844117
H            8.63158956572368       -0.44557733245049        0.33756391284024
H           10.80628044041389       -0.97835165298715       -0.65498702108134
H           12.27916600541865        0.82408800473886       -1.47849577588257
H           11.56045561635608        3.18099036650045       -1.27672483382445
H            9.35987384523034        3.72067893009332       -0.30145577498879
H            5.34330448793306        2.19379068716025        2.05118741210206
H            3.32545832018928        0.77440918989192        1.90613306180806
H            4.99088047474155       -3.12051640805729        0.27542217533853
H            4.48595963990794       -5.53432956932054        0.19166915452328
H            2.17869364842071       -6.33656529398510        0.02241874858468
H            0.28812037510785       -4.74435657704759       -0.03778911750738
H           -1.28891276706318       -2.49797313608030       -0.01401460786338
H           -2.50304214821265        1.59225534076702        1.29215067030543
H           -4.91336104673113        1.98804267898989        1.24485532350070
H           -8.87198144487017        1.36675799476454        1.21686808977705
H           -9.75886315425476        3.65964469139123        1.27723394589822
H           -8.59988425362818        5.47203555885794        0.06507641467451
H           -6.55058257484248        4.97037201231200       -1.21791322160081
H           -5.67117419064782        2.67511321305381       -1.29646207384787
H           -8.97440548325301        0.48189258676704       -1.45359382016189
H          -10.54476360261997       -1.40799882041826       -1.55095801149236
H          -10.06240044093202       -3.48888755163856       -0.31212470611455
H           -7.99931111660044       -3.66108982485354        1.03368468863110
H           -6.43563120761445       -1.76649136965511        1.14885916451842
H           -5.41338329938136       -1.36678364621775       -1.35914127315165
H           -3.00164122025290       -1.75553071231769       -1.32122919353481
H           -0.62022937056445        1.73704177105566        0.01858060187414
H            1.80916980868461        1.40356239074592        0.10008518743955
H            5.05473766554926       -1.31973398794739       -1.40235792120483
H            7.05800144353788        0.06992493222809       -1.25354147053327
