76
 energy: -117.305579234970 gnorm: 0.000076400930 xtb: 6.7.1 (edcfbbe)
O            7.54367243780424        3.59059745620330        0.67893070880598
C            7.67504169356345        2.42535891239271        0.35884170368278
C            9.00405350328158        1.85978083921070        0.01016072164783
C            9.35540603493012        0.55242675468062        0.33934510338580
C           10.61637748300030        0.07643710383955        0.03016608034553
C           11.53163430385315        0.89313675466179       -0.61458491318044
C           11.19223788966177        2.19817707672725       -0.93410805641093
C            9.93891863242045        2.68331979434610       -0.61318128824245
C            6.51588903057510        1.50221931343017        0.29937248247672
C            5.43303608835841        1.73311069188473        1.14754161383046
C            4.32810951037250        0.91024984497951        1.12024500959008
C            4.27029886397777       -0.14949912945829        0.21477911134186
N            3.15191963262550       -0.98307854112430        0.17640994489839
C            3.17172320223706       -2.36659371458414        0.16322329154342
C            4.24918887284634       -3.23740907681571        0.23316399073964
C            3.98430324239928       -4.59404454361298        0.23590592966924
C            2.68086240046368       -5.08108712276914        0.18143032788811
C            1.60312513345746       -4.21896666528307        0.14054773222428
C            1.84477985952189       -2.85210339128930        0.13654172868510
C            0.98675850950374       -1.69918668133052        0.12387124332631
C           -0.38943449315596       -1.54332389075046        0.07712604427729
C           -0.92760329053508       -0.26246367459362        0.05611288198642
C           -2.38241321731496       -0.06687324081113        0.01923031467717
C           -2.98948561772744        0.94341631991265        0.76384930394370
C           -4.35611945737456        1.12298990380970        0.74090700660970
C           -5.16457624801115        0.30096685689221       -0.04452641360520
N           -6.55046855219719        0.48304121367529       -0.07551428345459
C           -7.08828155621294        1.77373141474281       -0.02313791215317
C           -8.26797611875030        2.02079947799250        0.67889236622800
C           -8.79743794570861        3.29565591952098        0.72367495135598
C           -8.15986025418469        4.34404387493353        0.08070751438198
C           -6.98543604452204        4.10511785452568       -0.61399854710104
C           -6.45255578574473        2.83222606861324       -0.67202244953415
C           -7.39935601232765       -0.62613626717769       -0.15914633294840
C           -8.56963920009840       -0.56648895562667       -0.91571721395680
C           -9.40626643888625       -1.66281603121090       -0.99141588986704
C           -9.08955459912569       -2.83546921572906       -0.32538029686425
C           -7.92623221038877       -2.90160047254534        0.42382012783339
C           -7.08737643791610       -1.80801891122392        0.51279862188650
C           -4.56269301486360       -0.70692053545983       -0.79838005471305
C           -3.19680273244770       -0.88863901012317       -0.75867220966385
C           -0.06953311879428        0.84605818685687        0.05835490052713
C            1.30321911780059        0.71319421752941        0.09900349444174
C            1.83240705199884       -0.56808881451006        0.15507300059878
C            5.33704120988719       -0.36475523870226       -0.65805450190546
C            6.45100788752194        0.44735289521553       -0.61020624308148
H            8.65039164293526       -0.08004853876898        0.85926819802363
H           10.88782206432161       -0.93530361917519        0.29377616069903
H           12.51259908205281        0.51402876211122       -0.86057743539599
H           11.90841504982580        2.83799341752367       -1.42797771334005
H            9.65996442252565        3.70050335762195       -0.84483174945862
H            5.48751154921552        2.55984013381933        1.83998271770851
H            3.51027189229254        1.06922166297938        1.80652079974807
H            5.26334317231363       -2.87305515815896        0.29728563844043
H            4.80739007569009       -5.29150454455646        0.28574499959115
H            2.51554042263678       -6.14810769823385        0.18257097505080
H            0.59144578150614       -4.59479262657384        0.11822239315258
H           -1.03408343881889       -2.40908249971899        0.07475470429149
H           -2.38385315489843        1.57742510613284        1.39472179555314
H           -4.81086377774557        1.89971511559094        1.33839847956634
H           -8.76205066854601        1.20721304080506        1.18972409717303
H           -9.71069262650265        3.47310839456308        1.27257521717261
H           -8.57507714569049        5.33961165076372        0.12075958033873
H           -6.48394886185397        4.91519448107754       -1.12305327751949
H           -5.54227941241270        2.64688022858208       -1.22335974070384
H           -8.81421910569814        0.34332398530701       -1.44427731389722
H          -10.30838590330390       -1.60339432476588       -1.58256622276336
H           -9.74437741381128       -3.69119020412382       -0.38966939526203
H           -7.67363324106822       -3.80985024193929        0.95122735786653
H           -6.18615411097475       -1.85896932099955        1.10620155794497
H           -5.17624022400089       -1.34206089999232       -1.42070102394351
H           -2.74849871941231       -1.66149617272120       -1.36570016410736
H           -0.49798684178489        1.83557175328656        0.00032595939908
H            1.94034576605690        1.58411272819873        0.07046714028796
H            5.27394048423485       -1.15919724335650       -1.38640186088724
H            7.26144999511607        0.28446165289403       -1.30539552086655
