80
 energy: -119.448738721853 gnorm: 0.000040252186 xtb: 6.7.1 (edcfbbe)
C           -5.93430238454931        3.11137380078984       -0.49884611138499
C           -6.05711109901192        1.64989828469230       -0.02768562885689
C           -7.50462614852732        1.34915051387441        0.40499835392142
C           -5.14526838638426        1.43873495831185        1.16637093884749
C           -5.33652471749954        2.20242888602892        2.31051513119244
C           -4.56584962861671        2.03403459557245        3.44591359047609
C           -3.58518036093948        1.05854576346150        3.45571920084648
C           -3.37508251166478        0.28451552271758        2.33360147588350
C           -4.13001925994167        0.47567391984000        1.17180721691525
N           -3.88586297630765       -0.30884709601219        0.05154700079648
C           -2.87779431543717       -1.30462043015625        0.11087355920054
C           -3.23922365670225       -2.64724798384728        0.15088252172810
C           -2.27064339875869       -3.64164728800469        0.20969293242308
C           -0.94257046206634       -3.26753355563623        0.23552854414450
C           -0.57244920576842       -1.90957599041921        0.20047317462339
C           -1.53146046801074       -0.92354344805705        0.13360891139803
C            0.88837482465639       -1.83509658962035        0.26108063323272
C            1.72290601244359       -0.74833086455125        0.27813261943053
C            3.11817876756669       -0.94811159606817        0.37644382163146
N            3.97135148920263        0.12439799277757        0.41240068954994
C            5.37969017624412        0.01255470547923        0.36847052857784
C            6.07164718788084       -0.73465548443582        1.31340480430485
C            7.45247581090515       -0.79218196640641        1.26868999762403
C            8.13845097884500       -0.08395911235020        0.29781248082848
C            7.44894245003592        0.70166681524728       -0.61106911031872
C            6.06399628275447        0.76752199753922       -0.58943916828989
C            5.22862563457948        1.62088949831233       -1.52963195820159
C            6.07003841993531        2.64656836993496       -2.28974697476564
C            4.53878871703199        0.70805156503883       -2.56451749081210
C            4.16960623295241        2.27291029198008       -0.65604858637508
C            3.79403642048094        3.60526991064753       -0.73913175446251
C            2.83290477430604        4.12812083861265        0.11043675174257
C            2.25281996757710        3.33180668106292        1.08219420297935
C            2.61900675063225        2.00252250015150        1.18846357086749
C            3.54665995499187        1.46788706189353        0.30290721590161
C            3.60903384540990       -2.26575321689287        0.35998542452835
C            2.76214782439610       -3.35585707441075        0.33971942160796
C            1.39159890297622       -3.15200146140711        0.31787796500744
C            0.28291197170939       -4.10891388449187        0.30265816077241
O            0.33376631511403       -5.33015721798123        0.33407408916921
C           -4.63377689839181       -0.17319774371079       -1.11118568313218
C           -4.30388562336042       -0.93127727991801       -2.23915966130548
C           -5.03593635324819       -0.83094449912447       -3.40371596761071
C           -6.10949380664871        0.03921139636985       -3.46917547819174
C           -6.41487660485049        0.81685431608061       -2.36761017409236
C           -5.69228132564854        0.73850483039351       -1.18412228530250
H           -6.17923002858053        3.80015349706094        0.30470821715931
H           -6.60500098671302        3.30838732610609       -1.33032910826268
H           -4.91479864777982        3.31100119799111       -0.82467763525625
H           -8.19386334358607        1.49209393217703       -0.42269421706156
H           -7.58375150995306        0.31732582391395        0.74369558697250
H           -7.80936223078729        2.00106493877245        1.21897878947289
H           -6.11376100944669        2.95136534518678        2.32356998336589
H           -4.73936459144517        2.64880826872143        4.31632744812538
H           -2.98424525574945        0.89242742496187        4.33788768856381
H           -2.62022997720482       -0.48608078993693        2.36078614575280
H           -4.28701434883626       -2.90863057980470        0.13339231473140
H           -2.54566189020873       -4.68535018630894        0.24305934696330
H           -1.27002546542156        0.12346980642013        0.10057454147025
H            1.31825598205675        0.24669148395906        0.19336463468364
H            5.52816957354299       -1.25327010587622        2.08905889738598
H            7.98891329026044       -1.37956777865951        1.99875784240029
H            9.21656688720525       -0.12762248943017        0.25694155701769
H            8.00918253599081        1.26408995330275       -1.33968237522335
H            6.58009580819537        3.31944683413714       -1.60400738583538
H            5.43797591278670        3.22856317335658       -2.95552557309439
H            6.80828601224683        2.14092958724134       -2.90682830958372
H            5.28960047759000        0.21340398732280       -3.17710693526695
H            3.89749859338849        1.30330712219427       -3.21125786247214
H            3.92938153302678       -0.05643642907575       -2.09039597786772
H            4.24806401431040        4.25395665440437       -1.46998492517362
H            2.54956546128768        5.16633890576916        0.02235459026118
H            1.52610958240112        3.74486452860770        1.76571231662145
H            2.20193978739957        1.38123461874278        1.96721657653313
H            4.67299126142333       -2.43611322419788        0.34065079363067
H            3.16183059490133       -4.35929974132915        0.33660974826830
H           -3.46054605348645       -1.60379422949628       -2.20273045607090
H           -4.76286287318518       -1.43211700356176       -4.25874672938340
H           -6.69624745775405        0.12162185237174       -4.37175754569058
H           -7.24273550310834        1.50589091736523       -2.43812328478772
