  80
       -119.40196901
 C         -5.9578660949        3.1162477265       -0.4469732300
 C         -6.0672061610        1.6527342480        0.0182467172
 C         -7.5028495340        1.3458587914        0.4824743897
 C         -5.1297294390        1.4377754574        1.1903220516
 C         -5.2975295280        2.1962466425        2.3410089977
 C         -4.5038891559        2.0219020483        3.4589807639
 C         -3.5240694848        1.0461425885        3.4433807184
 C         -3.3363579098        0.2781945857        2.3136015049
 C         -4.1150200541        0.4748518232        1.1685923356
 N         -3.8973443487       -0.3050277369        0.0418173006
 C         -2.8897493871       -1.2991569633        0.0747978560
 C         -3.2488963821       -2.6428571849        0.0888551114
 C         -2.2795550874       -3.6368809414        0.1252005911
 C         -0.9522101111       -3.2621581852        0.1564297080
 C         -0.5843245437       -1.9038105800        0.1449072608
 C         -1.5441606250       -0.9178126922        0.0991380703
 C          0.8751199917       -1.8259945884        0.2082515424
 C          1.7047628945       -0.7344771244        0.2410452932
 C          3.0970144963       -0.9307997215        0.3493222482
 N          3.9525091228        0.1431763096        0.4012352401
 C          5.3575676198        0.0197557240        0.4111100577
 C          6.0050297215       -0.7244749178        1.3895294695
 C          7.3857001802       -0.7856105748        1.4065990814
 C          8.1166605825       -0.0845557130        0.4638307982
 C          7.4710029014        0.6917736790       -0.4839859178
 C          6.0870917068        0.7582252042       -0.5252429283
 C          5.2919773742        1.5908142334       -1.5158478845
 C          6.1648577319        2.5903935276       -2.2733703728
 C          4.6344009512        0.6500120169       -2.5459058883
 C          4.2055619523        2.2679248245       -0.6985234758
 C          3.8449402674        3.6004798634       -0.8215520057
 C          2.8516263022        4.1449050214       -0.0245198845
 C          2.2267078536        3.3701474169        0.9361714946
 C          2.5810270197        2.0420851963        1.0847183652
 C          3.5401457354        1.4830643648        0.2491647394
 C          3.5942644678       -2.2440427006        0.3243438511
 C          2.7523903715       -3.3386356436        0.2811429414
 C          1.3832988089       -3.1394461031        0.2497833498
 C          0.2750699761       -4.1060790491        0.2121203706
 O          0.3310743991       -5.3204300428        0.2220813917
 C         -4.6705161444       -0.1660529566       -1.1020565850
 C         -4.3668708557       -0.9203895873       -2.2398276704
 C         -5.1243915852       -0.8150260318       -3.3868519371
 C         -6.1964271166        0.0577861398       -3.4264027649
 C         -6.4756709018        0.8324861212       -2.3164851230
 C         -5.7279357985        0.7475905972       -1.1496685506
 H         -6.1997678766        3.8002265506        0.3615447146
 H         -6.6364393028        3.3134253683       -1.2719035513
 H         -4.9426547317        3.3234944243       -0.7806007209
 H         -8.2096135775        1.4800004692       -0.3316067205
 H         -7.5681824621        0.3155443827        0.8274340672
 H         -7.7946876824        1.9998082173        1.2994485806
 H         -6.0742981802        2.9450820908        2.3731380739
 H         -4.6593400908        2.6314792715        4.3357533389
 H         -2.9054205774        0.8759642313        4.3120062848
 H         -2.5820536074       -0.4927195981        2.3215649700
 H         -4.2967684443       -2.9032791881        0.0672124198
 H         -2.5538648515       -4.6805514875        0.1395093666
 H         -1.2843004705        0.1301747418        0.0900752737
 H          1.2954657406        0.2583769768        0.1614895137
 H          5.4242368250       -1.2372387185        2.1416728379
 H          7.8875756016       -1.3683889294        2.1637527688
 H          9.1950425432       -0.1281942415        0.4738182353
 H          8.0642678544        1.2454599996       -1.1933514358
 H          6.6559065014        3.2787099382       -1.5891135402
 H          5.5607192164        3.1591072317       -2.9759438609
 H          6.9209008288        2.0638967863       -2.8506050703
 H          5.4028975316        0.1173074763       -3.1021199239
 H          4.0359949527        1.2298798427       -3.2456224554
 H          3.9890413688       -0.0816486728       -2.0692395352
 H          4.3344790285        4.2323478967       -1.5446155884
 H          2.5804530604        5.1828508860       -0.1431328253
 H          1.4754008539        3.7999714679        1.5810922997
 H          2.1328877790        1.4415467862        1.8622357580
 H          4.6594119595       -2.4068743445        0.3147912220
 H          3.1573446487       -4.3389958000        0.2693383927
 H         -3.5251029315       -1.5941177329       -2.2238126204
 H         -4.8729037935       -1.4146157447       -4.2486791999
 H         -6.8011327897        0.1455267520       -4.3156355515
 H         -7.3033740190        1.5233716022       -2.3658574665
