80
 energy: -119.386448900763 gnorm: 0.000046794894 xtb: 6.7.1 (edcfbbe)
C           -6.01411692944809        3.08743605516991       -0.47914074889525
C           -6.12282949601224        1.61780623011069       -0.02656620833276
C           -7.57754730511429        1.28783629662960        0.36223334178337
C           -5.24282567230394        1.41176608283968        1.18818169966616
C           -5.47856282638920        2.15440600406860        2.33767232740727
C           -4.73054033223023        1.98329368674244        3.48783082079989
C           -3.72377783114449        1.03004838551867        3.50994776495374
C           -3.46630425759235        0.27907518275474        2.38520289159146
C           -4.20267793327915        0.46883939065139        1.20653269691804
N           -3.91279209420435       -0.28956148560602        0.08922304588571
C           -2.87883559088075       -1.26656972408672        0.15520082109757
C           -3.24246524875060       -2.62770837949341        0.21467327954425
C           -2.27870049744352       -3.60600240042446        0.29577431570302
C           -0.93414413185831       -3.23958333268698        0.29971122640936
C           -0.56723352545952       -1.85277780680132        0.24777348897267
C           -1.54977545142929       -0.87695310997480        0.17475614840277
C            0.85909839543268       -1.77646143029088        0.28514380549043
C            1.72487414590518       -0.69877553367641        0.26525347330592
C            3.10277073981061       -0.91504542277091        0.34537266336761
N            3.99266415599323        0.14513021560599        0.34319696528662
C            5.39024320365228       -0.00126235715502        0.31963102628017
C            6.05244669424600       -0.78579377181278        1.25977196801415
C            7.43084759992136       -0.87950908134418        1.23124438992895
C            8.14934709681160       -0.17342945818053        0.28169773290348
C            7.49292865047956        0.64824449128430       -0.62099185840353
C            6.11163509481842        0.75533459174721       -0.61411189773041
C            5.31209679880416        1.63950857269097       -1.55483147091234
C            6.18749514949851        2.65651453957799       -2.28791770189680
C            4.61933924189236        0.75404314748705       -2.61200569048638
C            4.25367847231930        2.30085197594242       -0.69004723856747
C            3.90143751322441        3.63912382031409       -0.76446315389234
C            2.93493842453573        4.16952167196190        0.07502487420773
C            2.32516484441242        3.37147340513859        1.02795791662268
C            2.66232180632155        2.03465986129687        1.12253577521204
C            3.59641260780998        1.49107302002940        0.24562778661984
C            3.59076147418717       -2.25172577476071        0.33350560059327
C            2.74011532720043       -3.32893833866444        0.35801369685642
C            1.36240363651445       -3.11801196647623        0.34569766594790
C            0.25843091356848       -4.05968175240528        0.34565472043879
O            0.32781388083413       -5.31456121458670        0.40007690934737
C           -4.62782418753719       -0.16033700384334       -1.08467133522920
C           -4.24984308632495       -0.90997468681661       -2.20865697677427
C           -4.95493428551067       -0.82112943207990       -3.38780713488155
C           -6.04799816202123        0.02754160636089       -3.47561952158493
C           -6.40320486163111        0.79478666759733       -2.38124987869491
C           -5.71036417722831        0.72822066772414       -1.17987211305179
H           -6.30810508594312        3.76004436369122        0.32100530709559
H           -6.65506032694585        3.27554362208890       -1.33520935642551
H           -4.98745277943386        3.31388416862754       -0.76087348598370
H           -8.24414529040098        1.43085176853720       -0.48307538243967
H           -7.64959177834170        0.25113460647946        0.68639254157556
H           -7.91399005208101        1.92560552844368        1.17422252781250
H           -6.27114771369607        2.88625236043035        2.34300191031313
H           -4.93875448794206        2.57950051147862        4.36306370315285
H           -3.14242425657869        0.86762668480505        4.40505267952060
H           -2.69276620817659       -0.47200684204277        2.41055331984862
H           -4.29139690938456       -2.88631401889871        0.20910917008499
H           -2.54901714102514       -4.65103193931525        0.35021371963416
H           -1.29263701697325        0.17188202978083        0.13334353770851
H            1.32579039127153        0.29773954856277        0.16745614321928
H            5.48530075220013       -1.29665075029154        2.02348624163860
H            7.94094675471611       -1.49317050766666        1.95840818563002
H            9.22609820946552       -0.24613095499636        0.25359518644884
H            8.07729608128476        1.20591254896646       -1.33401167765867
H            6.70174541226611        3.30791779389804       -1.58496829173946
H            5.57813426045093        3.26111097969049       -2.95450379897893
H            6.92303943925579        2.14263041093204       -2.90110650359238
H            5.36884804275034        0.24320210606102       -3.21266964764319
H            4.00819894137139        1.37160157989018       -3.26668880880091
H            3.97910878525572        0.00362430991479       -2.15574298957613
H            4.37949233602815        4.28735942266973       -1.48008131128415
H            2.67244028503756        5.21369998341023       -0.00438224144573
H            1.59780452059635        3.78987098709805        1.70730328595538
H            2.22778750223882        1.41367290404181        1.89141284299735
H            4.65202178038790       -2.42771651076332        0.26604929657057
H            3.12726609292737       -4.33798465378839        0.35359726206571
H           -3.39198845102760       -1.56084068206391       -2.14651093103566
H           -4.64902573848797       -1.41104741190196       -4.23871203395622
H           -6.61109245801560        0.10012612230344       -4.39351121645246
H           -7.24511245297550        1.46316549001939       -2.47241934890975
