  108
       -171.76396926
 O          0.0002247203       -5.0849332716        0.1787232663
 C         -0.0116627049       -3.8729247508        0.0763737775
 C         -1.2802112338       -3.1083463667        0.0016061060
 C         -1.3890199930       -1.8158406973        0.5143264331
 C         -2.5960105832       -1.1504838044        0.4683486364
 C         -3.7144932141       -1.7589024844       -0.0976106092
 N         -4.9394138375       -1.0588662130       -0.1395376889
 C         -6.0101016808       -1.4949472637        0.6351094874
 C         -5.9167682771       -2.6649860449        1.3932615787
 C         -6.9815753932       -3.1032072714        2.1544954483
 C         -8.1618328713       -2.3811409760        2.1893492399
 C         -8.2478626062       -1.2032225593        1.4721796314
 C         -7.1883010084       -0.7479148493        0.7026745293
 C         -7.3416597216        0.5897063826        0.0064712398
 C         -8.5584801851        0.5001445270       -0.8926793344
 C         -8.5709773711       -0.5409046752       -1.8180395908
 C         -9.6182869106       -0.7183554180       -2.6989617796
 C        -10.6940587602        0.1560185956       -2.6711902343
 C        -10.7013248586        1.1946913297       -1.7654787003
 C         -9.6384018756        1.3699895896       -0.8814801644
 S         -9.7767600372        2.7534583793        0.2047641505
 C         -8.3619623714        2.6116789813        1.2483143828
 C         -8.2820454796        3.5527920332        2.2730680240
 C         -7.2166631628        3.5484754423        3.1470403435
 C         -6.2190910139        2.5970004012        3.0005411079
 C         -6.3053685678        1.6668134834        1.9846295690
 C         -7.3737079089        1.6511964246        1.0908349965
 C         -6.1545228649        0.9054591960       -0.8813502576
 C         -6.2088093971        2.0418576010       -1.6735363436
 C         -5.1680626572        2.3798602856       -2.5174899172
 C         -4.0603117538        1.5525246896       -2.5842541152
 C         -3.9904173771        0.4175057266       -1.8023196720
 C         -5.0241495967        0.0878168739       -0.9212565443
 C         -3.6102644556       -3.0505400548       -0.6088871197
 C         -2.4066067240       -3.7211142938       -0.5458824152
 C          1.2421603312       -3.0807317914        0.0325306390
 C          2.3420301481       -3.5186671876        0.7683754019
 C          3.5219458473       -2.8050604313        0.7562288978
 C          3.6328448819       -1.6539968825       -0.0207754310
 N          4.8375366355       -0.9184939009       -0.0351332757
 C          4.8518563552        0.3687091998        0.4914624251
 C          3.7037282308        0.9119364822        1.0750237969
 C          3.7058936385        2.1927146184        1.5892979880
 C          4.8558258482        2.9616055148        1.5469499154
 C          6.0056253344        2.4172745132        1.0077085241
 C          6.0211080580        1.1319191019        0.4884104526
 C          7.3370667083        0.5916411415       -0.0352434822
 C          8.2889902040        0.5438322859        1.1444102393
 C          7.9620695826       -0.3370259497        2.1727292270
 C          8.7444737330       -0.4586278834        3.3030138684
 C          9.8904601347        0.3113302747        3.4302744832
 C         10.2317512146        1.1910826951        2.4258865284
 C          9.4355293221        1.3104986498        1.2884405306
 S          9.9903595071        2.4876426335        0.0971018261
 C          8.8507137958        2.3049657884       -1.2371542631
 C          9.1223505499        3.0785138891       -2.3640685227
 C          8.2942699939        3.0276043411       -3.4644170915
 C          7.1832496110        2.1984247746       -3.4445722208
 C          6.9215320005        1.4334616907       -2.3261504794
 C          7.7458593542        1.4673635310       -1.2038452749
 C          7.2009740314       -0.8216995681       -0.5635876471
 C          8.3316449823       -1.4313181470       -1.0853710318
 C          8.2786334541       -2.7020714656       -1.6252712967
 C          7.0634832281       -3.3638381025       -1.6664571881
 C          5.9284888737       -2.7722038194       -1.1500669215
 C          5.9830931129       -1.5040219844       -0.5651225978
 C          2.5477719605       -1.2346360537       -0.7874129490
 C          1.3599840546       -1.9359202749       -0.7545017400
 H         -0.5348098526       -1.3461229844        0.9770292333
 H         -2.6856749354       -0.1517395750        0.8696054344
 H         -4.9997626690       -3.2322768713        1.3982447253
 H         -6.8820304964       -4.0130633865        2.7269328710
 H         -8.9977177752       -2.7222162366        2.7795409322
 H         -9.1521515025       -0.6133112882        1.5094214929
 H         -7.7312288724       -1.2200572219       -1.8386787093
 H         -9.5963749656       -1.5336654148       -3.4058217814
 H        -11.5208442064        0.0299862313       -3.3531790721
 H        -11.5265817883        1.8899177425       -1.7269394218
 H         -9.0708194615        4.2842442709        2.3664903924
 H         -7.1637092988        4.2817928288        3.9369993537
 H         -5.3771836257        2.5811340816        3.6760150297
 H         -5.5277095180        0.9265108940        1.8740749041
 H         -7.0862973358        2.6692585175       -1.6247026060
 H         -5.2258804131        3.2702573550       -3.1235977411
 H         -3.2457637254        1.7855479163       -3.2536263385
 H         -3.1287223637       -0.2270088783       -1.8810152622
 H         -4.4766732393       -3.5184105449       -1.0519369723
 H         -2.3125470596       -4.7244146908       -0.9330881997
 H          2.2450276599       -4.4148873382        1.3621469081
 H          4.3673633662       -3.1325861873        1.3426602199
 H          2.8025432648        0.3226491591        1.1361041578
 H          2.8024136759        2.5875100237        2.0295650646
 H          4.8610240574        3.9653735623        1.9418072998
 H          6.9170771644        2.9960077478        0.9902172452
 H          7.0684146605       -0.9350666125        2.0737076694
 H          8.4625838717       -1.1500511166        4.0824494232
 H         10.5129007488        0.2272322919        4.3078469015
 H         11.1180123302        1.8029237693        2.5039609520
 H          9.9923780553        3.7179378777       -2.3555842010
 H          8.5131616009        3.6305937123       -4.3322485127
 H          6.5245638770        2.1488685762       -4.2982493247
 H          6.0567952216        0.7867608574       -2.3106944110
 H          9.2665751774       -0.8902580286       -1.0677136374
 H          9.1693727175       -3.1636269001       -2.0214046197
 H          6.9928176819       -4.3470244250       -2.1067019393
 H          4.9882081410       -3.2972504602       -1.2090835841
 H          2.6456683940       -0.3534119998       -1.4040050184
 H          0.5288890304       -1.6140333256       -1.3634189573
