110
 energy: -166.345001275712 gnorm: 0.000059643425 xtb: 6.7.1 (edcfbbe)
O            0.03618510089931       -4.84042161841936        0.14773361334547
C            0.01738181299869       -3.62768385887554        0.09611491256094
C           -1.26051655215078       -2.87035976220681        0.08282266161989
C           -1.38416955264824       -1.61978881257933        0.68596549656682
C           -2.60184964533763       -0.96782825254283        0.68664371617048
C           -3.70747741084287       -1.55247565846571        0.07686696420709
N           -4.96219710467591       -0.87145881433639        0.06694922726394
C           -5.83120828773946       -1.18905711786842        1.10902753228125
C           -5.39306468576654       -2.09133588609779        2.09054331487342
C           -6.20279370721962       -2.45418727458317        3.14520569364940
C           -7.47977852265639       -1.92984841426652        3.26437201367045
C           -7.91516777530919       -1.03661389556716        2.30865176963889
C           -7.11937362708412       -0.65229299870376        1.23467692857433
Si          -7.78714301746081        0.58881267647648        0.00222230430426
C           -8.25714136884209        2.21256535869504        0.85842734082028
C           -7.74305899560073        2.54041781451068        2.10938585317932
C           -8.08653137086958        3.72557386492013        2.73426051881889
C           -8.95294771031626        4.60978410559709        2.11381039943135
C           -9.47315178667387        4.30049385621885        0.86815650516676
C           -9.12694399883873        3.11286965086584        0.25005158928344
C           -9.30368218613511       -0.05854745770584       -0.93251748117747
C          -10.58013681600458        0.06468393520771       -0.39120044704640
C          -11.69083370594008       -0.40850962467592       -1.06546382453047
C          -11.54347149184502       -1.01643815105724       -2.30107072994546
C          -10.28124132087892       -1.14708637694112       -2.85522173477058
C           -9.17445818592913       -0.67299506575283       -2.17449334883447
C           -6.32492164177624        0.77801676639240       -1.15201571255102
C           -6.41607851881384        1.66106415632944       -2.22246126228702
C           -5.39458631990126        1.81960654032133       -3.13491271524018
C           -4.24466786622347        1.06321700124098       -2.97631460302185
C           -4.12613399406989        0.18326038910663       -1.92215963393588
C           -5.15524533985867        0.02541239673517       -0.98086408185095
C           -3.59209404822581       -2.80486908187720       -0.51741895480122
C           -2.37875745231972       -3.46230792467717       -0.50224218366832
C            1.27151983699088       -2.83290968727973        0.04348904970098
C            1.36086683589843       -1.64145738224384       -0.67492411005352
C            2.55788295051434       -0.95509073266182       -0.73271239268410
C            3.67678127101903       -1.44469624896796       -0.06496651631430
N            4.91421880817931       -0.73403230497099       -0.11069360950284
C            5.10630345428558        0.21285971785658        0.89243160833115
C            4.04934293954001        0.46915126045423        1.77928163853954
C            4.16719640562218        1.40164274771687        2.78736864069079
C            5.34316152349787        2.11578425102762        2.95049023806353
C            6.39012342187406        1.86354582815105        2.08939074214435
C            6.30005078600491        0.92623263322695        1.06614801689806
Si           7.78480209547383        0.61937157963218       -0.03300154471879
C            9.20039834282135       -0.22797491017975        0.90228450340882
C            9.38467048432579       -1.60560925029613        0.83182652893344
C           10.41631873608505       -2.22399969533609        1.51490494673394
C           11.28504295478844       -1.47104567861020        2.28668067560195
C           11.11617754710164       -0.09886782830507        2.36928688113888
C           10.08352936423276        0.51292688441532        1.68270623966764
C            8.43765979538960        2.22847257757606       -0.78787602807860
C            9.75389242785472        2.32351837625443       -1.22969417575788
C           10.23728015244252        3.49296785924625       -1.78759734631847
C            9.40746630426450        4.59454006675456       -1.91308490503407
C            8.09487179225091        4.51787107285111       -1.47852103388349
C            7.61751295514558        3.34451524936639       -0.92329484483244
C            7.05503046399769       -0.53864755498468       -1.31021302839325
C            7.82369235679323       -0.91424950115133       -2.40660250737722
C            7.36531536945437       -1.80377974319689       -3.35520806290539
C            6.09647702627359       -2.33867844989596       -3.20087751527116
C            5.30997198003373       -1.97699340451060       -2.12823430648973
C            5.76511440014686       -1.06561286899376       -1.16326128260860
C            3.59516763813912       -2.63701362608694        0.64545183854631
C            2.40266003575267       -3.33121320042638        0.68705084431524
H           -0.53382366272631       -1.16990505723823        1.17665142133844
H           -2.70904869778463       -0.00188849592698        1.15728982940785
H           -4.40411519537537       -2.51935414963165        2.03650604649139
H           -5.82948674741880       -3.15232079922297        3.88018591787545
H           -8.11650097530517       -2.21275830484449        4.08868616077638
H           -8.90507938984213       -0.61050036234786        2.38481092148991
H           -7.07058441656352        1.85058542306426        2.60009640636489
H           -7.67989041290668        3.96103242849665        3.70762613760349
H           -9.22383822379395        5.53586361362159        2.60013810444736
H          -10.15154256897383        4.98613096381773        0.38039139238648
H           -9.54449545292328        2.87334720155833       -0.71804981467059
H          -10.70353998740839        0.54638294082790        0.56878991866552
H          -12.67403208204344       -0.30213016490591       -0.62932802585078
H          -12.40990098176982       -1.38514878035965       -2.83102725077865
H          -10.16115282104413       -1.61841089153322       -3.82043810755083
H           -8.19148947118459       -0.77217731925919       -2.61370741184774
H           -7.32602885239269        2.23309098503942       -2.33210137283135
H           -5.48934595282948        2.51160952284167       -3.95775928755007
H           -3.43006315373518        1.15636767512177       -3.67991364147519
H           -3.21661768229192       -0.39114136834089       -1.83675975447071
H           -4.45920906596150       -3.25331471113831       -0.97846757372296
H           -2.27328098024964       -4.43959990098037       -0.94868662316350
H            0.50018855287266       -1.26624875020741       -1.20860053157551
H            2.63914765177080       -0.03624585241145       -1.29425140757694
H            3.11692374687549       -0.06574003320321        1.68464085967787
H            3.33050081536003        1.57166500932122        3.44942683453676
H            5.43733591853322        2.84909170347335        3.73684352273335
H            7.31808564623234        2.40539444760922        2.20147063429030
H            8.71241116979781       -2.19682784807186        0.22550516153964
H           10.54538955830990       -3.29481384774650        1.44492344333107
H           12.09246699446360       -1.95133574240496        2.82042753017471
H           11.79279343995221        0.49370365582578        2.96866196356587
H            9.96262108322294        1.58539216809753        1.74496448821944
H           10.40950666988991        1.46996549280661       -1.12653848160927
H           11.26306481103901        3.54788220910535       -2.12373731669666
H            9.78325145567576        5.51021035252334       -2.34651281460171
H            7.44388774135930        5.37555880774239       -1.57244991230399
H            6.59335752350941        3.29066868847171       -0.58128137787708
H            8.81290583194620       -0.49015535240199       -2.50193202105225
H            7.98162071074027       -2.08244084984233       -4.19632203314020
H            5.71107647364309       -3.04407303586966       -3.92259865779052
H            4.32725464945259       -2.41471432309733       -2.04558209211327
H            4.47150142620115       -3.01099917974398        1.15308693385005
H            2.32453154155512       -4.26489667052803        1.22336205725473
