110
 energy: -166.269119351929 gnorm: 0.000206133248 xtb: 6.7.1 (edcfbbe)
O           -0.10554906955035       -4.13189473594686       -1.83637294023721
C            0.02009554995332       -3.27338792525308       -0.90868774539805
C           -1.13469081692582       -2.71860996502566       -0.24587122856031
C           -1.12718973338756       -1.48684778152625        0.43838983957671
C           -2.27683628018350       -0.96545272749836        0.97105237953000
C           -3.50556674645614       -1.64088021615364        0.86033647768289
N           -4.66884794268961       -1.06389006579601        1.33710136454351
C           -5.94341573709676       -1.58347379223895        1.02040478143470
C           -6.32780376908056       -2.83860627692537        1.47776172707382
C           -7.58896151962332       -3.31945658871553        1.17637684699356
C           -8.47148707772247       -2.55115307351354        0.43196039979901
C           -8.09080822530045       -1.29528040795733       -0.00728067282016
C           -6.82708931824686       -0.79911179567836        0.27286960635442
Si          -6.11624909906142        0.88675256865028       -0.18529921465978
C           -7.37724661457627        2.15424895175263       -0.76783333178485
C           -8.48743623321683        2.45744381822710        0.01427211856304
C           -9.41703594287154        3.39138913042741       -0.40471349509004
C           -9.24854806894867        4.03904695367290       -1.61764835489609
C           -8.14813773826329        3.74762586109022       -2.40629257384917
C           -7.22158370996482        2.81212460314051       -1.98222198594590
C           -4.63697487782408        0.61248949998424       -1.33750524072183
C           -4.48194973790348       -0.57429246485137       -2.04779568499644
C           -3.32772142888232       -0.83093220956151       -2.76466071521018
C           -2.30714160277592        0.10354643453248       -2.79020586743668
C           -2.45170064973061        1.29839886644234       -2.10467598218017
C           -3.60388764394477        1.54490412806531       -1.38150752315749
C           -5.35381504125071        1.25457753906319        1.50410401225734
C           -5.38821361587169        2.43882501448582        2.22366410745037
C           -4.73307753983705        2.54912634043153        3.43769566054181
C           -4.03324690674144        1.46434156829360        3.94638806208731
C           -3.99536235322560        0.27029088304205        3.25123016580992
C           -4.65746223085386        0.16253914948304        2.03280070209419
C           -3.52747545404856       -2.84879746729589        0.14099688814999
C           -2.38008041933905       -3.36727953077124       -0.39452302104242
C            1.36866731637515       -2.89382475093594       -0.52013743247551
C            2.40844843410487       -3.02365276683023       -1.46328836451051
C            3.68711059782953       -2.63473641277754       -1.17153824817169
C            4.01915742014695       -2.14660118570125        0.10540404601009
N            5.28065019218854       -1.65234119672720        0.37284356573108
C            5.60182928851618       -1.05290556870913        1.61041678595807
C            5.59943721713823       -1.80553852517353        2.77904628314147
C            5.95331009202464       -1.20961691316865        3.97576604099450
C            6.31800636703587        0.12810107659762        4.01073654842438
C            6.32482067760141        0.87206575080772        2.84363033994466
C            5.96190525400367        0.29804492253439        1.63533537381220
Si           5.88540904817459        1.10797636626906       -0.06931903090614
C            6.73408341982152        2.78199227775210       -0.18346906684955
C            8.07236087225887        2.92163097276744        0.17107890962142
C            8.70238814331232        4.15006591324827        0.09386463201864
C            7.99951881978999        5.26183072090436       -0.34090127717895
C            6.66698751782180        5.13771401044272       -0.69694770505160
C            6.04184784826252        3.90629641280967       -0.61788281066996
C            4.05983121549068        1.07429989549815       -0.57782014346210
C            3.67662203152954        0.62503765943168       -1.83822747195189
C            2.34238792157114        0.45982719601185       -2.16095529135305
C            1.36240880473150        0.74572417002989       -1.22637099476033
C            1.72577237485880        1.21012702388749        0.02676131674002
C            3.06134026025562        1.36835020798399        0.34670591530460
C            6.73873863543956       -0.29356965592253       -1.00140607942124
C            7.74161714181488       -0.20380175762886       -1.95424111031745
C            8.26440461586685       -1.34318177229089       -2.54048524790565
C            7.79162716347987       -2.59248669944862       -2.16665426068773
C            6.79994607105132       -2.70552098020981       -1.20935160878469
C            6.27149607913095       -1.55817031223546       -0.62994162991404
C            3.00250496361982       -2.09956543962475        1.07559291799324
C            1.72080878585297       -2.48696817802194        0.78120837933831
H           -0.21439645496273       -0.91500227681088        0.49527586866971
H           -2.24611957465567        0.00337371000934        1.44675232490677
H           -5.64620077946736       -3.42403007757550        2.07784482769184
H           -7.88786297577441       -4.29436916600419        1.53219324387644
H           -9.45506291050718       -2.93204855678674        0.20040767324686
H           -8.77541688793962       -0.68991660011596       -0.58414109313662
H           -8.62030233130594        1.95347664846124        0.96138366946480
H          -10.27446479153825        3.61640597280805        0.21340928036332
H           -9.97355493378709        4.76916028540153       -1.94708301012629
H           -8.01363141442568        4.25085962108266       -3.35304468630965
H           -6.36375448325562        2.58554695811994       -2.59912987748680
H           -5.27291987439801       -1.31087821586501       -2.02671075178051
H           -3.21612545971417       -1.76571488463443       -3.29330382788773
H           -1.40167527378904       -0.10246244322819       -3.34220656739318
H           -1.66190275689734        2.03657952638731       -2.12619779159489
H           -3.70444069547309        2.47133452258191       -0.83252236952739
H           -5.92774263202201        3.28302297094341        1.81805973117555
H           -4.76255713783758        3.47775613641284        3.98817334085057
H           -3.52264188622869        1.54717235349530        4.89455895745331
H           -3.46468546209959       -0.58274883143353        3.64916173722414
H           -4.46238569257784       -3.36315620097893       -0.01812335182253
H           -2.40571675827594       -4.28748112994701       -0.95805586216645
H            2.15885418453966       -3.38948506088752       -2.44718146927781
H            4.44051931090156       -2.67204332460466       -1.94294030614746
H            5.33406994146132       -2.85235663049312        2.74276917672585
H            5.95415295646929       -1.79417036269550        4.88391355956669
H            6.59677436085404        0.58643944810870        4.94798488193289
H            6.60576946471370        1.91552564457800        2.86512412048957
H            8.62233880652331        2.05520347194159        0.51081298374599
H            9.74234605572873        4.24325590229373        0.37244295063135
H            8.48970446319872        6.22263794149934       -0.40197852786807
H            6.11582981815202        6.00291702553739       -1.03650883929624
H            5.00191620862591        3.81086264906611       -0.89590090418444
H            4.43758121865470        0.38878962811865       -2.56898389903686
H            2.06548145342004        0.09502750070040       -3.13915853914904
H            0.32055113613890        0.59900389366523       -1.46879043591531
H            0.96456646607533        1.43979279257506        0.75933013858986
H            3.33952951257318        1.71400565127941        1.33290531730992
H            8.10512213363442        0.77233933952860       -2.24247655961901
H            9.04030405844582       -1.26187349074224       -3.28713621547451
H            8.20362796947976       -3.48349453783220       -2.61673725554277
H            6.44155261701058       -3.67692626058233       -0.90060667516250
H            3.22632113877414       -1.73490626716149        2.06646658079605
H            0.97533042348769       -2.47899861258452        1.56121685463524
