110
 energy: -166.356999984585 gnorm: 0.000074323992 xtb: 6.7.1 (edcfbbe)
O           -0.15887539172888       -3.97965352561916       -2.09820315642012
C            0.00199727124122       -3.23027075077146       -1.14608600183066
C           -1.15389148536739       -2.65627288024983       -0.42651836860484
C           -1.12330684479529       -1.40469414607005        0.18756831654898
C           -2.24303947391300       -0.89073164008720        0.80013151487694
C           -3.44543982204761       -1.60824453788235        0.82673979458110
N           -4.57464270057891       -1.06067505360816        1.39858252889751
C           -5.86506890061368       -1.58481169223857        1.13297817180990
C           -6.24765631240214       -2.81119573373551        1.65961476367038
C           -7.51551945985119       -3.30154408271457        1.39964401181498
C           -8.40451605041131       -2.56722275170310        0.63120808801715
C           -8.02624101276698       -1.33550680024059        0.12647889855513
C           -6.75536940699896       -0.83379982565173        0.36370503738320
Si          -6.06209280888220        0.83762177806858       -0.17181779794704
C           -7.35086324987543        2.08566355003784       -0.73748324293659
C           -8.43543842947992        2.39639711437702        0.07707899823170
C           -9.38332275114620        3.31956723088028       -0.32431332789785
C           -9.25908095095466        3.94920370131381       -1.55199452216169
C           -8.18474762282239        3.65013065086336       -2.37304547225213
C           -7.23992666818950        2.72514484291462       -1.96648303717522
C           -4.62976378579622        0.55170239355561       -1.37810702791794
C           -4.47893062980983       -0.65410066329385       -2.05634000923135
C           -3.35409640104087       -0.90674879814131       -2.81997514394935
C           -2.36029041236419        0.05070340452970       -2.92551666621269
C           -2.50226018617183        1.26402031398809       -2.27265204933786
C           -3.62415039034436        1.50663568923786       -1.50225701380975
C           -5.23995321529134        1.27332552115733        1.47441235048784
C           -5.24470216997812        2.49180778924313        2.13652637941459
C           -4.54988973469035        2.65356500060962        3.32240225854318
C           -3.84064810542404        1.59030314041829        3.85881382707625
C           -3.83579387791185        0.36268874081822        3.22114259333238
C           -4.53734643003810        0.20438810793446        2.03290435809027
C           -3.48239652232411       -2.85235361423045        0.18510202703796
C           -2.36154303232417       -3.35470609227696       -0.43187153987263
C            1.35419578644133       -2.85483598819154       -0.68616378552997
C            2.40303924007091       -2.87726913228532       -1.60638754893046
C            3.67976582015930       -2.52012150006556       -1.24620967998705
C            3.96910321294395       -2.13682628210721        0.06971151312128
N            5.23019196451826       -1.70179013455068        0.41700983840653
C            5.48948131014958       -1.09376118263140        1.67065259928053
C            5.46187750092823       -1.84782837182271        2.83627283462096
C            5.74291318436744       -1.24247035200397        4.04862667409493
C            6.06438883133823        0.10456412952426        4.09951425537148
C            6.10519861906445        0.84880168529816        2.93348059922874
C            5.81222454095399        0.26389573597246        1.71079275075495
Si           5.82787582565858        1.07499336909199        0.00470223641359
C            6.68716089652158        2.74685806585794       -0.06793517701931
C            8.00144982062099        2.88633917134758        0.36721135992697
C            8.64079891411388        4.11121787888809        0.31310116392510
C            7.97166855754773        5.21964471591758       -0.17956761302148
C            6.66318765026513        5.09586645673419       -0.61585506280143
C            6.02862340854093        3.86807099446568       -0.55922998336049
C            4.03921918025394        1.07305012278231       -0.61988543393881
C            3.73968621284875        0.69897462311584       -1.92648373733646
C            2.42925044008212        0.58253929114272       -2.35174611373577
C            1.39051372216550        0.84444548750602       -1.47537340799251
C            1.67121970549112        1.23295396194428       -0.17598076505106
C            2.98313742100622        1.34063844210855        0.24638174560070
C            6.73107017886897       -0.31835330175690       -0.89397792543375
C            7.77245582149739       -0.21348025795988       -1.80369290936707
C            8.32744181503036       -1.34586803673922       -2.37368937382149
C            7.84712741956394       -2.59975728370294       -2.02998438774273
C            6.81807404954335       -2.72565005614336       -1.11364404032339
C            6.26111397008687       -1.58621585931614       -0.54835801864679
C            2.92462506207979       -2.15005977910945        1.00201133371891
C            1.64773513749502       -2.50645406751757        0.63168816499294
H           -0.22262433937438       -0.81151165964784        0.14920678228856
H           -2.20345621935695        0.09619402736802        1.23585666799640
H           -5.55832132554527       -3.37116300052974        2.27500089803694
H           -7.81316609274015       -4.25675678629390        1.80666364305066
H           -9.39304555270641       -2.95420091879584        0.43250310260514
H           -8.71846472287094       -0.75439057347694       -0.46608430278818
H           -8.53342932073801        1.90684703754830        1.03598153539455
H          -10.22033803363896        3.55045842896771        0.31911023980590
H           -9.99814002742927        4.67130289380135       -1.86759121461799
H           -8.08469883930581        4.13945400528131       -3.33130690070398
H           -6.40238388013893        2.49279149275946       -2.60862972076862
H           -5.24897486760741       -1.40819824140135       -1.97305125803184
H           -3.24353792185557       -1.85563724987660       -3.32308418132717
H           -1.47776894514861       -0.15221580241104       -3.51481640108847
H           -1.73447538304003        2.02079848120092       -2.35689989016755
H           -3.72197574145880        2.44827496106670       -0.97932986804506
H           -5.79270846917310        3.31992457240641        1.70957162067627
H           -4.55605132037400        3.60765213951016        3.82865682541090
H           -3.29621181213413        1.71496917946269        4.78342004627974
H           -3.29205994139565       -0.47326081323048        3.63726442923723
H           -4.40309349741836       -3.41301365700896        0.14783874237803
H           -2.39927526360685       -4.30998357965247       -0.93442040226171
H            2.18487244881628       -3.16390438089511       -2.62445385468649
H            4.45984607628635       -2.51099669736779       -1.99142076233909
H            5.22770309730975       -2.90160679164338        2.78925887382211
H            5.72050337783704       -1.82765698677460        4.95627783560599
H            6.28620252430678        0.57062681887205        5.04828901182849
H            6.35971254330385        1.89878158830519        2.96653242329875
H            8.52537917747543        2.02236569037709        0.75154111979687
H            9.66192664030312        4.20418149393974        0.65438773515801
H            8.46939726076550        6.17753032045163       -0.22339804001631
H            6.13827794212924        5.95837654191194       -1.00091314503460
H            5.00755874173411        3.77281054765841       -0.90031669063720
H            4.54689640151467        0.48513508258810       -2.61308099736081
H            2.21619987102600        0.27758857011539       -3.36593854320175
H            0.36588735252404        0.73959115271651       -1.79993065298287
H            0.86409301089016        1.44595016805926        0.51114989715665
H            3.19612710480589        1.62782457901734        1.26681717980340
H            8.14145483191655        0.76689680724739       -2.07005660194970
H            9.13402262630854       -1.25429890186628       -3.08608638005710
H            8.28164187307519       -3.48480066160342       -2.47091649558013
H            6.44552204396894       -3.70035982387169       -0.83346916584575
H            3.11404841534148       -1.85835078423490        2.02335033986295
H            0.87149108125658       -2.53311941150706        1.38220248510674
