110
 energy: -166.269120034767 gnorm: 0.000115939573 xtb: 6.7.1 (edcfbbe)
O           -0.06708650312269       -4.14216891608771       -1.95596963177922
C            0.04988774685278       -3.30742737255668       -1.00595856736079
C           -1.10731553619186       -2.77769216464831       -0.32945358820994
C           -1.10169389018559       -1.57338064311999        0.40269988367440
C           -2.25478801010543       -1.06565394885327        0.94037958409257
C           -3.48596887851794       -1.72904408164698        0.78954701344105
N           -4.65179762471961       -1.16045070664720        1.27096703929913
C           -5.92602146307422       -1.65659481041393        0.91814437729459
C           -6.32581091586307       -2.92565827317642        1.32084072474170
C           -7.58664827949120       -3.38406900143674        0.98525854671603
C           -8.45394566279726       -2.57983083571347        0.26113396096097
C           -8.05834496656055       -1.31063863381378       -0.12314619936077
C           -6.79443995189254       -0.83610008884352        0.19162194132190
Si          -6.06750801700564        0.86159232564486       -0.19068435199760
C           -7.31286021446571        2.16304840462737       -0.73104827354571
C           -8.42232729819651        2.45061569820794        0.05793039435682
C           -9.33914641195493        3.41051095072209       -0.32941504834300
C           -9.15842164539227        4.10034689016282       -1.51706080376732
C           -8.05872728057884        3.82474441495662       -2.31234863407944
C           -7.14502322789810        2.86315748986024       -1.91996001132140
C           -4.58261568538558        0.63138715580973       -1.34520481328741
C           -4.40545276181857       -0.54106061121680       -2.07381648496321
C           -3.24863859615281       -0.76301784188406       -2.79812556431770
C           -2.24871634273089        0.19370481826699       -2.81442223557912
C           -2.41593560080754        1.37526629931962       -2.11097759060901
C           -3.56959390679058        1.58601550929674       -1.37887316303004
C           -5.31992052368890        1.15581416964471        1.51972997128647
C           -5.35290740401191        2.31148564911703        2.28454743242212
C           -4.71151541823471        2.36875635963841        3.50949121986413
C           -4.02698539779274        1.25882917217700        3.98373908720965
C           -3.99086477874933        0.09247732555484        3.24312565412055
C           -4.63925498717578        0.03792583029799        2.01368950206412
C           -3.50498411215371       -2.91087406801078        0.02782837056773
C           -2.35412437079075       -3.41557203411814       -0.51329824015958
C            1.39700066947557       -2.92311271865917       -0.61258830264610
C            2.42919871609286       -2.99026809661517       -1.56961445383281
C            3.70245926690986       -2.58692223780205       -1.27245496178022
C            4.03676726429028       -2.14872058608606        0.02167117081915
N            5.28977768479187       -1.63959113136673        0.30067083819744
C            5.61248467584834       -1.10264515929404        1.56618067337226
C            5.64035035507160       -1.91940842311876        2.69058999970757
C            5.99585824999590       -1.38366980511254        3.91491641413352
C            6.33173901720739       -0.04215742318388        4.02098034156473
C            6.30755086263046        0.76614382042873        2.89770277004354
C            5.94268805052220        0.25259941997582        1.66303394509647
Si           5.82467516719928        1.15515181727650        0.00782417993082
C            6.63006631460687        2.85412252670760       -0.02019305209772
C            7.97042025762664        3.00807719866794        0.32017298175577
C            8.56703594843920        4.25543693696937        0.30711883579154
C            7.82802485226511        5.37208486411779       -0.04785735025888
C            6.49296311777024        5.23387441123946       -0.38891758627113
C            5.90139747874044        3.98359406216650       -0.37437097084569
C            3.99281604645168        1.11347971910164       -0.47642902809624
C            3.59655586033705        0.70333678666797       -1.74603085806019
C            2.25942474893801        0.53901044787430       -2.05702766212226
C            1.28961788950431        0.78687758650428       -1.10125893572497
C            1.66605880387741        1.21014645796347        0.16263380727968
C            3.00450823902123        1.36744946517777        0.47068422698187
C            6.69663804914715       -0.17123333057482       -1.01258528718994
C            7.68488344298905       -0.00378579071277       -1.97023417563897
C            8.22835830890450       -1.09559316823907       -2.62428110166451
C            7.79197790108060       -2.37517056797025       -2.31425078154016
C            6.81551919589599       -2.56578875916680       -1.35353269404339
C            6.26550612986783       -1.46579059140210       -0.70642809128623
C            3.02941624336003       -2.16695261587884        1.00236873668565
C            1.75306729628873       -2.56778836801373        0.70229427907448
H           -0.18664211852170       -1.00967081252094        0.49312085854614
H           -2.22427888905125       -0.11542400087796        1.45221128426662
H           -5.65656134868538       -3.53943670347275        1.90630984188394
H           -7.89738441413301       -4.36977542181466        1.29865605929835
H           -9.43740329415639       -2.94331356792848        0.00271867441379
H           -8.73124913171923       -0.67736857203645       -0.68356196133617
H           -8.56483744223183        1.91366374554940        0.98530926476802
H          -10.19615322991063        3.62292823740912        0.29372511523444
H           -9.87335371876973        4.85087484388230       -1.82170485924890
H           -7.91464369383012        4.36078439050507       -3.23948879382491
H           -6.28765899183113        2.64928855357331       -2.54200784372039
H           -5.18121280962408       -1.29375962003360       -2.06238459337077
H           -3.11944591739325       -1.68762283896148       -3.34047321266610
H           -1.34151923515286        0.01607780035311       -3.37338837020738
H           -1.64253958057589        2.13078242256203       -2.12609321531647
H           -3.68755334676863        2.50195165984448       -0.81594120147248
H           -5.88031620974539        3.17564132322787        1.90594598551783
H           -4.73981332784808        3.27550831881725        4.09535202110699
H           -3.52714344007878        1.30014539701142        4.94032659851436
H           -3.47220207220453       -0.78010031478933        3.61360868600817
H           -4.44030124332144       -3.41479997529771       -0.16001739300218
H           -2.37775010162749       -4.31452201173047       -1.11027594928260
H            2.17785403930749       -3.31765349254617       -2.56652592731184
H            4.44850959955227       -2.57402119105032       -2.05175020943402
H            5.39653455702918       -2.96802673904844        2.59828186295778
H            6.02043066860379       -2.01795768317117        4.78870491150414
H            6.61203300342309        0.36907287553404        4.97938537856659
H            6.56548396743135        1.81289932354521        2.97497621940951
H            8.54857248972776        2.13793236342459        0.59798019619801
H            9.60904943915404        4.35965023371396        0.57386098373255
H            8.29202235150482        6.34766600565017       -0.05847943317416
H            5.91357830720659        6.10279044079673       -0.66634055804280
H            4.85948062887630        3.87716458318501       -0.64072766038083
H            4.34953581548634        0.49787713486993       -2.49411402188726
H            1.97243632856027        0.20498861061174       -3.04327554467952
H            0.24563441745257        0.64282278511694       -1.33594386342704
H            0.91255047071322        1.40849490455138        0.91210135062728
H            3.29324577978500        1.68182835497748        1.46430018542639
H            8.02052300089605        0.99558947560883       -2.20821342066834
H            8.99258248963236       -0.95368478382773       -3.37390993262613
H            8.22072748356230       -3.22941941477002       -2.81690062616891
H            6.48633755186636       -3.56160135254203       -1.09394135920324
H            3.25543363486279       -1.84182596621834        2.00643479499175
H            1.01477707240375       -2.61009027648372        1.48807122330427
