  54
  -77.6612938640000       0.192847781947698      !
 N          1.6008154300        4.3432685434       -1.1878639476
 C          2.0596717051        3.3001996041       -1.0517652223
 C          2.6469415442        2.0290818437       -0.8770022088
 C          3.6418399689        1.8591901371        0.0872219244
 C          4.2446729336        0.6288825614        0.2330804877
 C          3.8730957074       -0.4532512272       -0.5613590855
 C          4.5756166444       -1.7677714515       -0.3949527627
 C          4.3075753076       -2.4147310925        0.9708436082
 C          2.9755029145       -3.1673406470        1.0230424863
 C          1.7647073395       -2.3170097058        0.7580775711
 C          0.9075006075       -2.6171451018       -0.2931265693
 C         -0.2548794574       -1.9025481275       -0.4975046845
 C         -0.6072861257       -0.8629423163        0.3633132324
 N         -1.8293239677       -0.2084226613        0.2076795551
 C         -2.9510106589       -0.9261314401       -0.2302239076
 C         -3.8624392056       -0.3355146767       -1.1050827724
 C         -4.9755181780       -1.0355507710       -1.5282819766
 C         -5.1956157527       -2.3325572795       -1.0940275443
 C         -4.2922592446       -2.9248557324       -0.2266753059
 C         -3.1796888135       -2.2304448821        0.2070786089
 C         -1.9800797638        1.1410135787        0.5496086096
 C         -3.1504832973        1.5835263282        1.1662261087
 C         -3.3084607803        2.9187434275        1.4821338412
 C         -2.3057610927        3.8308114024        1.1959820258
 C         -1.1384950498        3.3958835883        0.5901422731
 C         -0.9739797347        2.0627366980        0.2673393059
 C          0.2720042767       -0.5281275478        1.3940141817
 C          1.4339149153       -1.2479769045        1.5833842004
 C          2.8733458292       -0.2746757812       -1.5104102646
 C          2.2592234437        0.9505160017       -1.6723891061
 H          3.9383356704        2.6970614434        0.7010976309
 H          5.0289963433        0.5068948995        0.9663354686
 H          5.6511723098       -1.5936193440       -0.4905404929
 H          4.2751098782       -2.4551157313       -1.1873414723
 H          5.1066531975       -3.1274533314        1.1873922658
 H          4.3280533151       -1.6476288356        1.7459456028
 H          2.8778823498       -3.6136044262        2.0177952513
 H          3.0024385884       -3.9841756362        0.2979831963
 H          1.1461184963       -3.4338850885       -0.9604997260
 H         -0.9109827434       -2.1589770143       -1.3163306311
 H         -3.6890859793        0.6743520923       -1.4469520126
 H         -5.6722935476       -0.5667648642       -2.2073491422
 H         -6.0657036332       -2.8771076294       -1.4275834388
 H         -4.4597622243       -3.9327961454        0.1234029352
 H         -2.4821309586       -2.6903968944        0.8917227286
 H         -3.9320725226        0.8735284633        1.3940111599
 H         -4.2196294223        3.2476161797        1.9599508997
 H         -2.4330791244        4.8740906361        1.4408913938
 H         -0.3559767070        4.0989901643        0.3480183332
 H         -0.0682999818        1.7270100031       -0.2136854716
 H          0.0223714004        0.2816279609        2.0635646005
 H          2.0818406391       -0.9886525724        2.4083684453
 H          2.5739598739       -1.1036873498       -2.1337092734
 H          1.4870984825        1.0840980139       -2.4162258635
  54
  -77.6610937671000       0.156047379482796      !
 N          0.0100678559        2.0532884923       -3.4553520582
 C          0.8126252970        1.4463341991       -2.9035324601
 C          1.8051266709        0.7054046152       -2.2256095480
 C          1.9182512105       -0.6705472828       -2.4271071467
 C          2.8846201912       -1.3839214299       -1.7486731801
 C          3.7607226346       -0.7516941153       -0.8736828713
 C          4.8208705931       -1.5269486931       -0.1492689714
 C          4.6743080353       -1.4719038313        1.3757485227
 C          3.4408849631       -2.2192561150        1.8911258731
 C          2.1289900423       -1.5915019922        1.5080537277
 C          1.8346464728       -0.2761016087        1.8489425336
 C          0.6189034299        0.2914284820        1.5319270058
 C         -0.3687019743       -0.4561270618        0.8879470000
 N         -1.6169920572        0.1058242704        0.6210272228
 C         -2.3627302792       -0.2777478189       -0.4985258227
 C         -1.7312675394       -0.5902464114       -1.7008294447
 C         -2.4736602744       -0.9554891779       -2.8059314530
 C         -3.8556474882       -1.0142414769       -2.7346959097
 C         -4.4893512351       -0.7075089669       -1.5418569774
 C         -3.7543565652       -0.3458721899       -0.4296536268
 C         -2.1496267812        1.0616013808        1.4982860708
 C         -2.8133782997        2.1810393788        0.9980398686
 C         -3.3491101130        3.1153895890        1.8630874169
 C         -3.2263441786        2.9544182862        3.2337484349
 C         -2.5636747060        1.8461136896        3.7353876679
 C         -2.0311548716        0.9024349240        2.8784044491
 C         -0.0801577603       -1.7772549839        0.5473706671
 C          1.1515726632       -2.3241542024        0.8471188633
 C          3.6536493681        0.6255734689       -0.6996756365
 C          2.6826911245        1.3520512975       -1.3544597321
 H          1.2520883566       -1.1688860620       -3.1165420616
 H          2.9619941633       -2.4499745063       -1.9039833313
 H          5.7981924246       -1.1122905770       -0.4146392296
 H          4.8004980939       -2.5691541917       -0.4742911710
 H          5.5627415973       -1.9253371182        1.8216120347
 H          4.6353714473       -0.4321507868        1.7013029794
 H          3.5004611829       -2.2556920398        2.9837290624
 H          3.4682692787       -3.2485272597        1.5266503555
 H          2.5675010093        0.3198963591        2.3733463879
 H          0.4187965488        1.3197894516        1.7938851895
 H         -0.6570604106       -0.5321840646       -1.7588190723
 H         -1.9696895433       -1.1822059462       -3.7340088204
 H         -4.4337539626       -1.2947140372       -3.6017760953
 H         -5.5662365977       -0.7551358575       -1.4741259825
 H         -4.2534708642       -0.1124570919        0.4993276850
 H         -2.9012003839        2.3093146656       -0.0706259454
 H         -3.8589326649        3.9795116792        1.4633735602
 H         -3.6444092826        3.6876455931        3.9064962233
 H         -2.4683064731        1.7098792821        4.8026025323
 H         -1.5222487387        0.0338399782        3.2700669983
 H         -0.8327016294       -2.3779797223        0.0587206061
 H          1.3468611109       -3.3529068393        0.5783005114
 H          4.3425125459        1.1361933934       -0.0428970988
 H          2.5974503023        2.4185401942       -1.2070898570
  54
  -77.6608448383000       0.119910364804850      !
 N          0.9620522502        3.7762830505        1.8020715835
 C          1.5786683882        2.8803982970        1.4363574948
 C          2.3521055785        1.7851211707        0.9931819578
 C          2.6998059924        0.7737870273        1.8902357296
 C          3.4882228025       -0.2738403303        1.4658999227
 C          3.9342651622       -0.3500149797        0.1489940819
 C          4.8273303636       -1.4748927763       -0.2839620920
 C          4.1735851532       -2.8562991592       -0.1706572260
 C          3.0403629832       -3.0697844119       -1.1782562750
 C          1.8126214377       -2.2446977591       -0.9094351861
 C          1.1103269330       -2.3776668337        0.2831958147
 C         -0.0485673126       -1.6672605113        0.5147644115
 C         -0.5629105467       -0.8121478188       -0.4606982108
 N         -1.7708556600       -0.1438028380       -0.2521585076
 C         -2.7960746459       -0.7677311688        0.4696349775
 C         -3.5906987061       -0.0296245108        1.3464750605
 C         -4.6081242130       -0.6451059128        2.0493020283
 C         -4.8456602315       -2.0015182716        1.8980851384
 C         -4.0564364755       -2.7402470465        1.0317935912
 C         -3.0419321326       -2.1321849229        0.3182284342
 C         -1.9752456391        1.1385272908       -0.7729099245
 C         -3.2271413126        1.5176887606       -1.2566589333
 C         -3.4224995432        2.7910231192       -1.7555770007
 C         -2.3793212380        3.7018306378       -1.7880445616
 C         -1.1322906598        3.3272863284       -1.3152816733
 C         -0.9290190683        2.0583118873       -0.8113474034
 C          0.1443841084       -0.6648541861       -1.6532235901
 C          1.3132914976       -1.3682247376       -1.8640401798
 C          3.5696263067        0.6561715865       -0.7384514739
 C          2.7893447801        1.7182039411       -0.3297682558
 H          2.3578633919        0.8292374027        2.9132754077
 H          3.7724142543       -1.0407593705        2.1713065057
 H          5.7208191534       -1.4671694851        0.3479593941
 H          5.1471013876       -1.3133074920       -1.3154452995
 H          4.9414362277       -3.6127401776       -0.3491828303
 H          3.7950561279       -3.0005986505        0.8416133789
 H          2.7577816702       -4.1269560078       -1.1502262144
 H          3.4094287549       -2.8544724056       -2.1834106473
 H          1.4700954752       -3.0542072281        1.0451197117
 H         -0.5758718386       -1.7820579106        1.4503172552
 H         -3.4012203626        1.0262943597        1.4709129871
 H         -5.2151359474       -0.0617613666        2.7258668974
 H         -5.6400291650       -2.4791435732        2.4509925691
 H         -4.2375583856       -3.7971837105        0.9031467215
 H         -2.4351594302       -2.7077933463       -0.3652600373
 H         -4.0420211442        0.8089918824       -1.2382595199
 H         -4.3967708699        3.0716427806       -2.1278648489
 H         -2.5370721856        4.6960274354       -2.1770090772
 H         -0.3148768836        4.0331593505       -1.3226323818
 H          0.0380105809        1.7683489739       -0.4335576348
 H         -0.2384831241       -0.0089428293       -2.4209753488
 H          1.8343304338       -1.2496643100       -2.8037453114
 H          3.9098976831        0.6135552062       -1.7627149247
 H          2.5214359591        2.5018296792       -1.0233887963
  54
  -77.6608426920000       0.119638332991917      !
 N          1.4399896801        4.2401963844       -1.4318941149
 C          1.9228579577        3.2183254751       -1.2350588974
 C          2.5412686740        1.9724816975       -0.9942648453
 C          3.5115746752        1.8665692518        0.0035544976
 C          4.1481261688        0.6618934456        0.2091253690
 C          3.8364009911       -0.4571784377       -0.5592803914
 C          4.5838658465       -1.7391907149       -0.3404034681
 C          4.3244249489       -2.3578255591        1.0398846461
 C          3.0117872674       -3.1434141586        1.1040502930
 C          1.7865158847       -2.3158991724        0.8359027340
 C          0.9509981519       -2.6074469301       -0.2345619907
 C         -0.2116718277       -1.8966621239       -0.4518851503
 C         -0.5877216465       -0.8724263770        0.4171912323
 N         -1.8008361590       -0.2075314242        0.2420661278
 C         -2.9133146662       -0.8927969193       -0.2636260489
 C         -3.7908589557       -0.2508868610       -1.1372656405
 C         -4.8959553633       -0.9175822813       -1.6293270510
 C         -5.1414118233       -2.2318925514       -1.2665869572
 C         -4.2722522876       -2.8747756425       -0.4003185157
 C         -3.1684465412       -2.2139795639        0.1028364058
 C         -1.9483970417        1.1321651427        0.6250005570
 C         -3.1228210751        1.5630292081        1.2415101106
 C         -3.2714289220        2.8875592072        1.6041988181
 C         -2.2563933716        3.7992872664        1.3636691592
 C         -1.0863265211        3.3755828950        0.7550324623
 C         -0.9308087402        2.0534244293        0.3867901098
 C          0.2643471179       -0.5546099991        1.4760517707
 C          1.4284403900       -1.2671745846        1.6754919891
 C          2.8577226800       -0.3429174989       -1.5398651803
 C          2.2089817031        0.8549145536       -1.7603481184
 H          3.7642744060        2.7337206804        0.5959986871
 H          4.9139359384        0.5906841897        0.9680890462
 H          5.6534117203       -1.5274356373       -0.4285359013
 H          4.3203862856       -2.4605869277       -1.1155529298
 H          5.1416010043       -3.0424554305        1.2782589780
 H          4.3186513210       -1.5711649336        1.7953181407
 H          2.9277669409       -3.5827008843        2.1029207556
 H          3.0545293301       -3.9649126700        0.3852825446
 H          1.2084558118       -3.4124285820       -0.9091424722
 H         -0.8469458895       -2.1422452715       -1.2901335585
 H         -3.5973205654        0.7724024960       -1.4239493449
 H         -5.5660431578       -0.4089331279       -2.3066125999
 H         -6.0044623997       -2.7508065913       -1.6548001099
 H         -4.4601819560       -3.8967425603       -0.1054545573
 H         -2.4983565190       -2.7138597486        0.7869545937
 H         -3.9140111735        0.8527207682        1.4323977276
 H         -4.1852332351        3.2084210353        2.0824263399
 H         -2.3770995351        4.8340163563        1.6454235472
 H         -0.2955827443        4.0796960893        0.5444102851
 H         -0.0235805271        1.7250511253       -0.0961386443
 H         -0.0066215171        0.2389609534        2.1564638091
 H          2.0568373724       -1.0189057318        2.5188394969
 H          2.6041197399       -1.2008794856       -2.1439449080
 H          1.4533795225        0.9382402842       -2.5280270686
  54
  -77.6608152639000       0.116215825400752      !
 N          0.1048698034        2.8449064875        2.4324338057
 C          0.9218628214        2.1450193900        2.0333822388
 C          1.9185580406        1.2728974328        1.5446386539
 C          2.6314407988        1.5898738857        0.3872376169
 C          3.5692376605        0.7057843352       -0.1017816883
 C          3.8238932738       -0.5007548599        0.5441764554
 C          4.8291927241       -1.4628177504       -0.0156191537
 C          4.4420317128       -2.0079638876       -1.3963547401
 C          3.2035632828       -2.9122066987       -1.3728818605
 C          1.9248670091       -2.1621374225       -1.1255790984
 C          1.1732500703       -2.3710469899        0.0224812245
 C          0.0123851653       -1.6635446032        0.2587698324
 C         -0.4522595879       -0.7320471853       -0.6698197607
 N         -1.6317779732       -0.0280464372       -0.4336780453
 C         -2.6569608630       -0.6273824257        0.3148418005
 C         -3.3299032311        0.1014815171        1.2940267858
 C         -4.3487256613       -0.4868274122        2.0183045215
 C         -4.7053899675       -1.8052131033        1.7843733206
 C         -4.0343010886       -2.5349441298        0.8167152515
 C         -3.0187592863       -1.9533300374        0.0823876214
 C         -1.8156546739        1.2740639385       -0.9076433853
 C         -3.0855457268        1.7073905525       -1.2905559241
 C         -3.2752670390        2.9985899461       -1.7423344324
 C         -2.2080828402        3.8770975413       -1.8294659326
 C         -0.9440927755        3.4498396851       -1.4577641355
 C         -0.7456492213        2.1625910115       -0.9999530069
 C          0.2823298732       -0.5429897978       -1.8417658559
 C          1.4513440635       -1.2429161700       -2.0553174659
 C          3.1396272755       -0.7843302417        1.7209467428
 C          2.1890082640        0.0823985047        2.2187523021
 H          2.4480933106        2.5286950386       -0.1152634100
 H          4.1143431722        0.9565731904       -0.9999257817
 H          4.9619771838       -2.2980504499        0.6749775572
 H          5.7911887677       -0.9501936654       -0.1100104013
 H          4.2676659549       -1.1769493889       -2.0810155697
 H          5.2859018535       -2.5859076675       -1.7805431253
 H          3.3323451636       -3.6802670126       -0.6075187434
 H          3.1347062353       -3.4154033467       -2.3417363496
 H          1.5045923815       -3.0947585641        0.7535720579
 H         -0.5432357609       -1.8277284756        1.1699392572
 H         -3.0425272723        1.1254335252        1.4808629694
 H         -4.8621804164        0.0860229506        2.7763203957
 H         -5.5014523400       -2.2614214385        2.3529233727
 H         -4.3093340248       -3.5617797282        0.6251447416
 H         -2.4991068497       -2.5187729350       -0.6776988985
 H         -3.9206741829        1.0251712378       -1.2308704974
 H         -4.2644264189        3.3188945163       -2.0349923532
 H         -2.3600564440        4.8855550900       -2.1824553435
 H         -0.1061424680        4.1292504810       -1.5154116703
 H          0.2370052829        1.8343165713       -0.7038344875
 H         -0.0761259146        0.1502248201       -2.5880842690
 H          1.9993404589       -1.0817607179       -2.9730771225
 H          3.3485638776       -1.7022626736        2.2506764325
 H          1.6488238427       -0.1511647294        3.1240972597
  54
  -77.6606833388000       0.101073357583470      !
 N          1.4395547429        4.2695135758        1.1555308541
 C          1.9216930415        3.2460616369        0.9628870754
 C          2.5400495011        1.9992110129        0.7249583529
 C          2.3243540731        0.9254939789        1.5893545536
 C          2.9801661919       -0.2691172711        1.3727894721
 C          3.8506521410       -0.4245601183        0.2998726533
 C          4.6127652672       -1.6992363898        0.0870118821
 C          4.2464889292       -2.4136569599       -1.2205402635
 C          2.9442033927       -3.2128082971       -1.1188827476
 C          1.7342177194       -2.3722572753       -0.8242266299
 C          1.2940398379       -1.4089594156       -1.7248443736
 C          0.1457617533       -0.6813877733       -1.4917091941
 C         -0.6048865915       -0.8950803890       -0.3346864028
 N         -1.8002148641       -0.2106058836       -0.1130958859
 C         -2.8608566361       -0.8473012022        0.5445099922
 C         -3.1361687455       -2.1954923242        0.3168549594
 C         -4.1859935579       -2.8115019609        0.9698219138
 C         -4.9822161465       -2.0967076733        1.8497658810
 C         -4.7171649033       -0.7557078771        2.0750221985
 C         -3.6642745514       -0.1330963371        1.4333296312
 C         -1.9784270190        1.0932574061       -0.5921245781
 C         -3.2079044096        1.4920587971       -1.1160053783
 C         -3.3813739909        2.7829661921       -1.5760477595
 C         -2.3372925509        3.6921828099       -1.5280324976
 C         -1.1128197121        3.2998731598       -1.0125015061
 C         -0.9322751821        2.0125573403       -0.5462733611
 C         -0.1470123481       -1.8344982969        0.5890013765
 C          0.9972028789       -2.5636990713        0.3371065379
 C          4.0430819769        0.6489952733       -0.5664228810
 C          3.3978624481        1.8501831127       -0.3662693751
 H          1.6529635097        1.0410956004        2.4278102806
 H          2.8197896512       -1.0912200383        2.0536878747
 H          4.4462636244       -2.3758992034        0.9269752831
 H          5.6788822942       -1.4554629090        0.0590127697
 H          4.1647246513       -1.6813348854       -2.0245917008
 H          5.0511936387       -3.1054048482       -1.4802435431
 H          3.0532256684       -3.9724323652       -0.3415922461
 H          2.7893264789       -3.7321257409       -2.0695695683
 H          1.8437429933       -1.2419845096       -2.6401031868
 H         -0.1916168389        0.0430218524       -2.2180204709
 H         -2.5242794014       -2.7521472227       -0.3779591995
 H         -4.3896462804       -3.8554617746        0.7818238239
 H         -5.8035730465       -2.5809404159        2.3556209040
 H         -5.3301717799       -0.1909229740        2.7619718270
 H         -3.4548856057        0.9110626248        1.6137685808
 H         -4.0221425017        0.7837325311       -1.1596785441
 H         -4.3383839265        3.0788245668       -1.9802455379
 H         -2.4771196859        4.7001861779       -1.8871030328
 H         -0.2969612906        4.0039084288       -0.9515571336
 H          0.0182523562        1.7098503419       -0.1355629046
 H         -0.7043406397       -1.9998927145        1.4992465884
 H          1.3187336050       -3.3027464255        1.0579231852
 H          4.7237394901        0.5467098853       -1.3993821629
 H          3.5595404282        2.6826304369       -1.0355830488
  54
  -77.6601757311000       5.906855486737769E-002 !
 N         -0.1971544729        2.5840078958       -2.3789427718
 C          0.6985946893        1.9668373289       -2.0142896984
 C          1.7810074584        1.1876368807       -1.5528754773
 C          2.1513387210        0.0314973143       -2.2380100740
 C          3.1618856111       -0.7646635632       -1.7389679304
 C          3.8063325197       -0.4459887331       -0.5488281883
 C          4.8549978416       -1.3497585530        0.0284763839
 C          4.4772738564       -1.9134790850        1.4052035039
 C          3.2765090558       -2.8687876819        1.3738458821
 C          1.9711296489       -2.1605728362        1.1448448890
 C          1.2442906866       -2.3383927207       -0.0240588398
 C          0.0784153944       -1.6388375275       -0.2580733195
 C         -0.4210326632       -0.7509329928        0.6955158761
 N         -1.5905829493       -0.0375050794        0.4521581850
 C         -2.5573386112       -0.5568355498       -0.4260176486
 C         -3.1218571087        0.2620060612       -1.4021387819
 C         -4.0841290260       -0.2422497710       -2.2556309169
 C         -4.4896821206       -1.5634223981       -2.1529841286
 C         -3.9250518112       -2.3815871763       -1.1879904722
 C         -2.9665697339       -1.8848158805       -0.3251861128
 C         -1.8242266636        1.2184911477        1.0203018210
 C         -3.1226265315        1.5925988890        1.3683480772
 C         -3.3676010017        2.8365822164        1.9157981146
 C         -2.3284480482        3.7263376880        2.1316634395
 C         -1.0371204324        3.3590392740        1.7911778806
 C         -0.7834150230        2.1190125189        1.2395418499
 C          0.2766682851       -0.6130656677        1.8976030193
 C          1.4550729184       -1.2986034429        2.1062921775
 C          3.4659569789        0.7393756162        0.0965726926
 C          2.4704963354        1.5555414059       -0.3961382850
 H          1.6334179289       -0.2392839590       -3.1467474879
 H          3.4430050096       -1.6605039760       -2.2736960293
 H          5.7864013344       -0.7855778112        0.1368178156
 H          5.0435355208       -2.1776516162       -0.6581387838
 H          5.3425270658       -2.4548703067        1.7951641305
 H          4.2618631700       -1.0917418160        2.0895657339
 H          3.2337013077       -3.3897425270        2.3348694107
 H          3.4310413580       -3.6181211889        0.5946422162
 H          1.6040181837       -3.0245569480       -0.7773878611
 H         -0.4488750585       -1.7695192085       -1.1910002812
 H         -2.7915386113        1.2862312948       -1.4869956014
 H         -4.5129475121        0.3983634802       -3.0117686770
 H         -5.2419309959       -1.9536356202       -2.8216953072
 H         -4.2396185264       -3.4111373081       -1.0996115970
 H         -2.5297768336       -2.5181677961        0.4333467187
 H         -3.9357673374        0.9007381780        1.2060838703
 H         -4.3779247495        3.1105973395        2.1818094863
 H         -2.5232606705        4.6979287004        2.5592526957
 H         -0.2209774576        4.0499808575        1.9464751916
 H          0.2199110849        1.8386708723        0.9629885235
 H         -0.1144366182        0.0328358101        2.6693521643
 H          1.9772597312       -1.1721695956        3.0444314175
 H          3.9872353840        1.0255315228        0.9983621555
 H          2.2214219773        2.4805144312        0.1033194891
  54
  -77.6601263956000       5.606390185233395E-002 !
 N          0.8519379821        0.3638091708       -4.6465214381
 C          1.5133706927        0.1370574011       -3.7364533414
 C          2.3536343455       -0.1385672580       -2.6375851320
 C          2.9780751732       -1.3813296606       -2.5387624310
 C          3.8437609670       -1.6272505113       -1.4929509964
 C          4.1068454315       -0.6545661984       -0.5343366661
 C          5.0831732550       -0.9232198565        0.5714390907
 C          4.4567575491       -0.8546142933        1.9682728452
 C          3.2633506134       -1.8055776787        2.1341718769
 C          1.9611943994       -1.2146335902        1.6681414617
 C          1.4351006839       -0.1018531612        2.3164344107
 C          0.2146917420        0.4266530559        1.9556408975
 C         -0.5384249078       -0.1599797261        0.9370143982
 N         -1.8100195186        0.3324068055        0.6382053480
 C         -2.3179231850        0.2906173736       -0.6653270138
 C         -3.6689744358        0.0197972669       -0.8842400214
 C         -4.1771214358        0.0016797901       -2.1682178013
 C         -3.3496719457        0.2410128633       -3.2531005523
 C         -2.0053606014        0.4999900008       -3.0431802182
 C         -1.4904596747        0.5284342660       -1.7613816992
 C         -2.6210869560        0.8185902341        1.6727047263
 C         -2.6410000594        0.1890011440        2.9170781866
 C         -3.4459677297        0.6731295368        3.9297746734
 C         -4.2477970028        1.7830421100        3.7193979331
 C         -4.2350199546        2.4100643312        2.4840946412
 C         -3.4274399431        1.9379159810        1.4677710199
 C         -0.0032252021       -1.2575736545        0.2641310443
 C          1.2263259401       -1.7708066904        0.6298052524
 C          3.4654642137        0.5768508039       -0.6352828655
 C          2.5941462305        0.8391568669       -1.6705903691
 H          2.7844584407       -2.1375757918       -3.2854676762
 H          4.3317178206       -2.5892971201       -1.4246120537
 H          5.8900150354       -0.1860684178        0.5183565208
 H          5.5260971630       -1.9113566019        0.4287895258
 H          5.2297526037       -1.1147336797        2.6947785501
 H          4.1353983293        0.1661191799        2.1781599585
 H          3.1620958785       -2.0489179054        3.1959036005
 H          3.4610610248       -2.7361809303        1.5992190890
 H          1.9846494992        0.3526727830        3.1288380000
 H         -0.1766962466        1.2892274547        2.4747353148
 H         -4.3143302112       -0.1780109291       -0.0409422336
 H         -5.2251858886       -0.2097264501       -2.3219909620
 H         -3.7483411704        0.2263164239       -4.2557939750
 H         -1.3502258567        0.6852282724       -3.8807723931
 H         -0.4439281257        0.7405875895       -1.6011414493
 H         -2.0242861816       -0.6827905232        3.0800357703
 H         -3.4540682916        0.1735017357        4.8873564554
 H         -4.8796243107        2.1549671549        4.5114076311
 H         -4.8557936896        3.2767826372        2.3111130833
 H         -3.4170271029        2.4285116758        0.5055225978
 H         -0.5671789440       -1.7208096573       -0.5318863487
 H          1.6098094815       -2.6356589112        0.1074394334
 H          3.6590703833        1.3425165468        0.1009410795
 H          2.1067659981        1.8002138174       -1.7493570883
  54
  -77.6601202010000       5.569759960302943E-002 !
 N          0.8078947550        0.8124802415       -4.5096118164
 C          1.4547737486        0.4792444955       -3.6218482905
 C          2.2799308016        0.0679291950       -2.5540735100
 C          2.8150248533       -1.2197512104       -2.5530702833
 C          3.6781880054       -1.5978760698       -1.5456100334
 C          4.0275342852       -0.7148226596       -0.5295078672
 C          5.0200310925       -1.1199939189        0.5193253315
 C          4.4640168395       -1.0786137471        1.9459563835
 C          3.2373750820       -1.9795843269        2.1336597250
 C          1.9544189136       -1.3525809275        1.6621455239
 C          1.4790294438       -0.1959975669        2.2712786859
 C          0.2749891133        0.3644700631        1.9038152421
 C         -0.5169875612       -0.2356698913        0.9229183397
 N         -1.7731722875        0.2882901857        0.6196807461
 C         -2.3194976615        0.1708064125       -0.6646150215
 C         -3.6803019684       -0.0901767144       -0.8259200922
 C         -4.2254093388       -0.1863948862       -2.0912891620
 C         -3.4265426322       -0.0319654006       -3.2125855718
 C         -2.0737545168        0.2220308262       -3.0583246933
 C         -1.5217113485        0.3254663279       -1.7961628370
 C         -2.5355476439        0.8999953785        1.6242992621
 C         -2.5663176166        0.3771264623        2.9167241652
 C         -3.3212307366        0.9904155206        3.8976062141
 C         -4.0617258338        2.1247988499        3.6073609295
 C         -4.0411520182        2.6437577564        2.3230549869
 C         -3.2835017352        2.0416350735        1.3374692235
 C         -0.0323001149       -1.3795772827        0.2893376446
 C          1.1843224232       -1.9209937133        0.6565045873
 C          3.4677027686        0.5598903222       -0.5284737568
 C          2.5985114018        0.9536824699       -1.5231549072
 H          2.5586146010       -1.9051008047       -3.3476494591
 H          4.1003127971       -2.5926784273       -1.5561312581
 H          5.8803231198       -0.4456678472        0.4658146081
 H          5.3769272032       -2.1300854334        0.3063006889
 H          5.2557132401       -1.4057951468        2.6237986254
 H          4.2039095450       -0.0535090681        2.2113691970
 H          3.1343546203       -2.1999589786        3.2004233937
 H          3.3988488675       -2.9263823708        1.6148162470
 H          2.0554507273        0.2700845437        3.0580684472
 H         -0.0733961896        1.2635064343        2.3904655848
 H         -4.3036470785       -0.2161463689        0.0473001287
 H         -5.2805029814       -0.3897381886       -2.2016812843
 H         -3.8549437905       -0.1070647410       -4.2002862542
 H         -1.4405602929        0.3556874244       -3.9224261640
 H         -0.4691937086        0.5355155954       -1.6796613255
 H         -1.9982217351       -0.5135601588        3.1420567646
 H         -3.3386900249        0.5733214553        4.8938208566
 H         -4.6512125430        2.6003599325        4.3762068170
 H         -4.6114727948        3.5304753269        2.0885890491
 H         -3.2624542465        2.4499245264        0.3376552571
 H         -0.6255165858       -1.8558387647       -0.4770530162
 H          1.5279150268       -2.8197329730        0.1642248331
 H          3.7258206132        1.2570133904        0.2545384507
 H          2.1747166584        1.9476120051       -1.5223603821
  54
  -77.6593021803000       2.343690146577568E-002 !
 N          1.7864145169        4.4097509894        0.3445011248
 C          2.2788930219        3.3886391981        0.1679788024
 C          2.9062062231        2.1429418486       -0.0494774257
 C          3.8143531508        1.6558024513        0.8899238899
 C          4.4370677023        0.4434844082        0.6721205170
 C          4.1703757415       -0.3063902836       -0.4686463351
 C          4.8521824438       -1.6232843614       -0.6895822728
 C          3.8870705569       -2.8155918518       -0.6757266722
 C          3.0535376523       -2.9049384782        0.6142325292
 C          1.7355909732       -2.1913883195        0.4940061612
 C          0.7456607957       -2.7136811247       -0.3325402752
 C         -0.4760870909       -2.0893853594       -0.4686806530
 C         -0.7443270516       -0.9093882936        0.2247870129
 N         -1.9887025871       -0.2814453308        0.1015580732
 C         -3.1546738123       -1.0497854713        0.0609955984
 C         -3.2552314783       -2.2213015559        0.8124002613
 C         -4.4083806180       -2.9800367559        0.7699411754
 C         -5.4814646354       -2.5845523906       -0.0117570733
 C         -5.3881674393       -1.4214940026       -0.7586254533
 C         -4.2361722557       -0.6602982565       -0.7298374323
 C         -2.0545901860        1.1133998016        0.0134176456
 C         -1.0798487280        1.8151322146       -0.6944027506
 C         -1.1436449165        3.1911038000       -0.7920095502
 C         -2.1780718761        3.8875285104       -0.1893332971
 C         -3.1481991666        3.1956967881        0.5170432386
 C         -3.0902723891        1.8195615029        0.6235941742
 C          0.2451002262       -0.3776065751        1.0494563744
 C          1.4608175947       -1.0191262300        1.1847030661
 C          3.2672062500        0.1935228519       -1.4024437119
 C          2.6397306950        1.4051390016       -1.2037448491
 H          4.0228700960        2.2316614263        1.7798829617
 H          5.1439759118        0.0728513638        1.4011413306
 H          5.6099354524       -1.7715082766        0.0829319774
 H          5.3610880519       -1.6049430046       -1.6576354396
 H          3.2128287444       -2.7527184274       -1.5312716431
 H          4.4821469621       -3.7242250479       -0.7887594099
 H          3.6245400970       -2.4979540453        1.4500681336
 H          2.8547518153       -3.9582654738        0.8279933202
 H          0.9343719750       -3.6296737894       -0.8747921242
 H         -1.2357924967       -2.5116459162       -1.1101126309
 H         -2.4245129406       -2.5268491512        1.4315778335
 H         -4.4724519881       -3.8826515844        1.3597936808
 H         -6.3826050746       -3.1778150603       -0.0390775749
 H         -6.2170042302       -1.1074320409       -1.3758635209
 H         -4.1638501287        0.2407259343       -1.3209719700
 H         -0.2795780487        1.2652723750       -1.1667040889
 H         -0.3843502065        3.7264241101       -1.3416260659
 H         -2.2239800726        4.9624436445       -0.2683613311
 H         -3.9543118893        3.7321502844        0.9956302702
 H         -3.8444468763        1.2820403438        1.1795950987
 H          0.0497175574        0.5364665648        1.5908375903
 H          2.2037542527       -0.6030397529        1.8489141528
 H          3.0583756128       -0.3726397947       -2.2982249207
 H          1.9506883930        1.7951243379       -1.9382985993
