70
 energy: -111.571322582028 gnorm: 0.000039047387 xtb: 6.7.1 (edcfbbe)
C            8.10036887976030        3.44391819617780        0.52720655213401
C            6.74674161168592        3.69333654624321        0.74307337598749
C            5.78852233566790        2.72556208149274        0.51070423954139
C            6.21520974011992        1.49020548097082        0.04457409897042
C            7.58881250882970        1.22026124052729       -0.15478515169218
C            8.53307348957925        2.20966215100838        0.08577277023861
C            7.67721703465608       -0.14603739715228       -0.58753012299471
C            8.73708636644599       -0.96781656829999       -0.94785660202343
C            8.46554799838737       -2.26138414801729       -1.34584428435215
C            7.15608712515836       -2.73412315880488       -1.40070650676151
C            6.08514585572756       -1.93614047955248       -1.04697855705641
C            6.35358188148195       -0.64190716849623       -0.62467391252647
N            5.48105838985372        0.35712848284222       -0.24232097985782
C            4.08568579279376        0.23904244379765       -0.16064823856766
C            3.27643421767081        1.18193934114652       -0.79885903317023
C            1.89690470313757        1.10470639631516       -0.73763133394225
C            1.32851073368357        0.05677932099497       -0.03761852617747
C            2.14599235504947       -0.92210998625112        0.61405177358363
C            3.52327212003457       -0.81568956710392        0.55178286031725
C            1.26051625895597       -1.87963754828807        1.25482558795880
C            1.23948447529013       -3.03814392732572        2.02538536532628
C           -0.00157173971819       -3.57221948719515        2.38226883089955
C           -1.24219837891560       -3.03553303823361        2.02782718379684
C           -1.26233280170673       -1.87691928086464        1.25738718431953
C           -2.14705606132151       -0.91763506122068        0.61818411307425
C           -3.52426469850893       -0.80829061673065        0.55863876268685
C           -4.08582525094525        0.24678794014942       -0.15394593416616
N           -5.48099534902595        0.36802587213884       -0.23357630070258
C           -6.21150596097100        1.50463070637111        0.04880145340506
C           -5.78086923898080        2.74033929321581        0.51039899118244
C           -6.73587298575056        3.71229600049186        0.73845098660563
C           -8.09024244183659        3.46662345400165        0.52292891755385
C           -8.52694819581096        2.23202940578929        0.08642547644758
C           -7.58594112419811        1.23848250783411       -0.14980549395210
C           -7.67879306602459       -0.12920912145486       -0.57718351350907
C           -8.74135021700920       -0.94877230387247       -0.93461027516149
C           -8.47414271619490       -2.24482438714120       -1.32741109193063
C           -7.16629482030767       -2.72221160028664       -1.38008783422426
C           -6.09272079246387       -1.92641781459810       -1.02940213901593
C           -6.35680040318557       -0.62963165815761       -0.61219079142296
C           -3.27571615494690        1.18719094111424       -0.79485594990495
C           -1.89627846176892        1.10752097306610       -0.73565508311062
C           -1.32877622088144        0.05924346537265       -0.03544393387127
N           -0.00025409680593       -0.26739768241372        0.18163627156256
C           -0.00071355916742       -1.39834927084833        0.93633219940552
H            8.81808054202782        4.22789062303863        0.71807024849867
H            6.43972763827995        4.66416260564623        1.10361598578438
H            4.74352732756796        2.92272243366796        0.69766748272876
H            9.58328113060353        2.01120214357272       -0.06668735600988
H            9.75043214890139       -0.59647187022089       -0.91948205013802
H            9.27543648522293       -2.91761927329928       -1.62798990244908
H            6.97359483484335       -3.74639023869555       -1.73046495448110
H            5.07270670677126       -2.30633561131077       -1.10909314842710
H            3.74464112099972        1.97683980633522       -1.35914790129672
H            1.28442785204340        1.84116520243713       -1.23397992416861
H            4.15557397508739       -1.52986884056975        1.05663052808737
H            2.14591658591094       -3.52675040618571        2.34897034705182
H           -0.00192065129940       -4.47246028361329        2.98040378459848
H           -2.14901177487744       -3.52226535133754        2.35317459920213
H           -4.15697377277094       -1.52056049415546        1.06565108187317
H           -4.73532932394035        2.93463776754955        0.69729077801597
H           -6.42572235323477        4.68347822453809        1.09533392690421
H           -8.80534026116861        4.25384596346396        0.71018865790860
H           -9.57776567645301        2.03653728366399       -0.06568696657007
H           -9.75343367048647       -0.57386432268243       -0.90807510391327
H           -9.28619926417183       -2.89938824940009       -1.60719078929496
H           -6.98714782271984       -3.73641830030095       -1.70569636310253
H           -5.08156790644902       -2.30031438283324       -1.09005775911534
H           -3.74332377790964        1.98203937494201       -1.35570468922387
H           -1.28317309763955        1.84217915637812       -1.23388622446203
