70
 energy: -111.571320636409 gnorm: 0.000116395174 xtb: 6.7.1 (edcfbbe)
C            8.08398687671918        3.43151481641445        0.59416403038814
C            6.72818665232051        3.67355312957359        0.80474895915691
C            5.77507359020813        2.70466383597239        0.55666446332299
C            6.20917499574453        1.47594632738819        0.07994470089407
C            7.58490922651910        1.21327173908065       -0.11424566118602
C            8.52396015933209        2.20362260294138        0.14231016324778
C            7.68099481228117       -0.14798664427668       -0.56100310177503
C            8.74597435872869       -0.96196112293536       -0.92397352476038
C            8.48155699819798       -2.25214499793494       -1.33743158441736
C            7.17422367550634       -2.72911539153879       -1.40497061233582
C            6.09829762789076       -1.93895801180172       -1.04881273963933
C            6.35948168202067       -0.64835663154298       -0.61113913085457
N            5.48098229552612        0.34330198700801       -0.22338473027596
C            4.08569582721641        0.21923784291196       -0.14930999630426
C            3.27608393159535        1.16595724866935       -0.78143756001872
C            1.89659464037982        1.08460435664785       -0.72553544354517
C            1.32867176985929        0.02886129422875       -0.03694003125729
C            2.14652332307924       -0.95454505075487        0.60737406501579
C            3.52375308013353       -0.84416152318754        0.55043276534967
C            1.26139206117247       -1.91954135489497        1.23733467660666
C            1.24082233948274       -3.08402295403451        1.99884546832880
C           -0.00001266661380       -3.62222054796636        2.35025707901344
C           -1.24084387987835       -3.08400958743196        1.99885253037743
C           -1.26140539204905       -1.91952769382517        1.23734197631135
C           -2.14652984125006       -0.95452172196270        0.60738660997898
C           -3.52375871493490       -0.84412311516128        0.55045357901471
C           -4.08569407137980        0.21928225811854       -0.14928600417469
N           -5.48097963391055        0.34336180789338       -0.22335176863083
C           -6.20915790548472        1.47601409374459        0.07998271069085
C           -5.77503972632141        2.70472748357913        0.55669781929591
C           -6.72814057681267        3.67362701316476        0.80478922522200
C           -8.08394505866489        3.43160279070397        0.59421556482737
C           -8.52393491765927        2.20371480345634        0.14236637039361
C           -7.58489648367060        1.21335385908061       -0.11419624300834
C           -7.68100012929755       -0.14790395963732       -0.56095149073904
C           -8.74599130245737       -0.96186759079863       -0.92391213143956
C           -8.48159100260033       -2.25205465780311       -1.33737112102559
C           -7.17426325057815       -2.72903881747360       -1.40492078719406
C           -6.09832589764358       -1.93889241591818       -1.04877270402504
C           -6.35949269008703       -0.64828790306108       -0.61109801776623
C           -3.27607560987902        1.16599257656903       -0.78141876269765
C           -1.89658685973510        1.08462469409070       -0.72552474977271
C           -1.32867138367097        0.02887568171459       -0.03693236452570
N           -0.00000096421920       -0.29953292505497        0.17657026023090
C           -0.00000497106038       -1.43742790585754        0.92076608823987
H            8.79754946913421        4.21615950469163        0.79738287722937
H            6.41537945069770        4.63933580556300        1.17375087068426
H            4.72826964012629        2.89585826569668        0.73965438718359
H            9.57578050274198        2.01077113594265       -0.00614992790831
H            9.75775398377764       -0.58725209418689       -0.88581917639286
H            9.29551508739761       -2.90226035797026       -1.62203207888832
H            6.99747420208376       -3.73845306691067       -1.74660287550571
H            5.08759988697673       -2.31214749344502       -1.12052022482301
H            3.74417204807474        1.96745012294759       -1.33235201870035
H            1.28374451338764        1.82427272856592       -1.21661937655453
H            4.15622040667088       -1.56176007585062        1.05020810286265
H            2.14747000763277       -3.57370825012487        2.32018908999868
H           -0.00001585958920       -4.52682025895316        2.94177755253557
H           -2.14749498612839       -3.57368491454231        2.32020163988142
H           -4.15623087110960       -1.56171462155821        1.05023292111186
H           -4.72823228377870        2.89591117935010        0.73967896424548
H           -6.41532018501115        4.63940676011773        1.17378761653725
H           -8.79749775329327        4.21625510392560        0.79743970217381
H           -9.57575851598144        2.01087414648679       -0.00608472674883
H           -9.75776663581867       -0.58714781082716       -0.88574980472284
H           -9.29555832076220       -2.90216173463569       -1.62196412777022
H           -6.99752726321678       -3.73837869210838       -1.74655351676160
H           -5.08763270282977       -2.31209263402725       -1.12048829755996
H           -3.74415821732992        1.96749031800941       -1.33233081786641
H           -1.28373159789918        1.82428621574514       -1.21661259878691
