70
 energy: -111.479487514927 gnorm: 0.000066752106 xtb: 6.7.1 (edcfbbe)
C            8.03804883413753       -2.74797318176529       -2.26990071981932
C            6.68131871430274       -2.84683275218722       -2.56832239202563
C            5.73445087798284       -2.11729785816273       -1.87239880491565
C            6.17609491080956       -1.28753298096569       -0.85144042029751
C            7.55623913857482       -1.15699015846162       -0.56452192342424
C            8.48796844480406       -1.89814407114454       -1.27652573089939
C            7.66472615726707       -0.17927386820483        0.48294437316276
C            8.73743091986425        0.34767990563249        1.18748744044209
C            8.48452767672446        1.27393161479116        2.18219069982148
C            7.18154204752182        1.65722555461315        2.49035620255705
C            6.09673403312053        1.14552207739192        1.80141927336760
C            6.34594069206307        0.24181429602901        0.77814620196340
N            5.45590670483173       -0.43628225880223       -0.03434866053917
C            4.07203883562844       -0.28482591070150       -0.02789693635678
C            3.25249517702259       -1.44372034836878       -0.02478790289571
C            1.87873496492274       -1.33204740078204       -0.00464363144297
C            1.30818225578099       -0.06961639705353       -0.00429911161136
C            2.14037009085696        1.13526584151170       -0.01011237310603
C            3.51691107258145        0.99110979456822       -0.01562750037991
C            1.26281983513305        2.27257545335702       -0.01218457953056
C            1.24444952588070        3.68333911794471       -0.00973779916479
C            0.00147292944797        4.31832634108844       -0.00083433532121
C           -1.24203804924599        3.68428663330152        0.00781833452419
C           -1.26156818955758        2.27354794270668        0.00948250848170
C           -2.14000616863421        1.13692465344233        0.00717855385302
C           -3.51668958395478        0.99374875194992        0.01399883432573
C           -4.07263837179303       -0.28180323530162        0.02628939866721
N           -5.45646736093113       -0.43315242566397        0.03532762795629
C           -6.34877693939767        0.24457640934244       -0.77500571498011
C           -6.10273938203451        1.15055252184644       -1.79703192083488
C           -7.18946225544641        1.66116552397307       -2.48379518375378
C           -8.49127846585691        1.27462601648943       -2.17477859085035
C           -8.74104535246786        0.34624758152057       -1.18126760748838
C           -7.66640060690086       -0.17956679592762       -0.47884912402173
C           -7.55482646086259       -1.15863644668735        0.56702297883914
C           -8.48423586395923       -1.90285432981572        1.27887382350903
C           -8.03147585198161       -2.75314744866774        2.27056314810204
C           -6.67426315518256       -2.84931052823525        2.56765485458416
C           -5.72968975228937       -2.11676373566612        1.87178944690508
C           -6.17412816080536       -1.28680490877015        0.85219208950138
C           -3.25380051671050       -1.44130008932393        0.02116466440448
C           -1.88003498096059       -1.33063971015351        0.00001391522525
C           -1.30863380828716       -0.06859338232323        0.00032573955185
N           -0.00009886897983        0.32803830682690       -0.00202236091904
C            0.00041726191490        1.70721660967864       -0.00162791238759
H            8.74692706878190       -3.33568349676973       -2.83376137367211
H            6.36140507566932       -3.50248400094848       -3.36432477015742
H            4.68838727919456       -2.18207765712185       -2.12869598916860
H            9.54152446343604       -1.80529525503045       -1.06082906977359
H            9.74585436314746        0.03367694961753        0.96475006493573
H            9.30575402068673        1.69879444178143        2.73979045689912
H            7.01302021792134        2.36531334566002        3.28777356900869
H            5.09024318237247        1.43179404844825        2.06463633939850
H            3.72157446333609       -2.41323450942433        0.01785181870768
H            1.26093734923140       -2.21707103873815        0.02337946044994
H            4.15600450139119        1.86020072519439       -0.05706777609437
H            2.15264485826196        4.26472574804634       -0.01747684839712
H            0.00189247992370        5.40045468130066       -0.00057114084459
H           -2.14973876326650        4.26644119763083        0.01596034285356
H           -4.15507138044568        1.86329897104060        0.05674142911713
H           -5.09720671984326        1.43942815642836       -2.06103460446217
H           -7.02338493170042        2.37099053497942       -3.28018126896324
H           -9.31405966478178        1.69863995154872       -2.73073224535470
H           -9.74852841557257        0.02974319919958       -0.95781815435522
H           -9.53820413925775       -1.81205351057805        1.06432557708202
H           -8.73848746523485       -3.34332723796079        2.83418519975097
H           -6.35212449837107       -3.50522119314965        3.36254422589530
H           -4.68326179215572       -2.17940825605104        2.12713429262405
H           -3.72364667787666       -2.41041103132343       -0.02208849159777
H           -1.26287152146273       -2.21606244458530       -0.02917135104006
