  85
       -138.80166180
 C         -7.8119874114       -3.9856871864        0.8161737012
 O         -6.5395881827       -3.8806085449        1.4036924488
 C         -5.6232591235       -3.0530630442        0.8214726156
 C         -4.3795884727       -2.9991844016        1.4696069557
 C         -3.3496287620       -2.2158004052        0.9991099202
 C         -3.5622842571       -1.4773787175       -0.1560964887
 C         -4.8169701532       -1.4989955585       -0.7962423302
 C         -5.8524927022       -2.2910967757       -0.3127914582
 C         -4.7280800133       -0.5900269745       -1.9047603979
 C         -5.6208302852       -0.2129748844       -2.8992042436
 C         -5.2015533348        0.6855056512       -3.8594715332
 C         -3.9038930103        1.1905846186       -3.8463871433
 C         -2.9978098709        0.8299400075       -2.8670635091
 C         -3.4225478440       -0.0485004921       -1.8807755980
 N         -2.7228332385       -0.5926478506       -0.8174643688
 C         -1.4019896827       -0.3099360731       -0.4784002630
 C         -0.9642047839        1.0119122320       -0.4354294448
 C          0.3535431107        1.3092086675       -0.1170428253
 N          0.7664367344        2.6369914921       -0.0487618427
 C          1.8879702963        3.1819077787       -0.6490636750
 C          2.7913316975        2.6020371204       -1.5258020439
 C          3.8155912075        3.3896708437       -2.0141558787
 C          3.9339056663        4.7301601084       -1.6566600232
 C          3.0154897509        5.3232063334       -0.8140974748
 C          1.9789251387        4.5497786236       -0.3087506080
 C          0.8585774723        4.8369494714        0.5434373946
 C          0.4449409320        5.9941040140        1.1938709251
 C         -0.6954831969        5.9353959602        1.9785105009
 O         -1.2214790493        6.9897876398        2.6694263299
 C         -0.5622382935        8.2288702313        2.5970960528
 C         -1.3974489819        4.7283958410        2.1185174752
 C         -0.9954031977        3.5757252017        1.4802250977
 C          0.1315331783        3.6376447686        0.6733740641
 C          1.2534193542        0.2670713096        0.1723689807
 C          2.5474731842        0.5573752544        0.6543436857
 N          3.5756453000        0.7905764427        1.1061520759
 C          0.8145113796       -1.0684682047        0.1023443024
 N          1.7071703397       -2.1087370779        0.3522936495
 C          1.5214249647       -3.1366857984        1.2580681955
 C          0.4688638171       -3.3668715457        2.1298555111
 C          0.5435832101       -4.4689151856        2.9598805756
 C          1.6457867972       -5.3194785170        2.9374195677
 C          2.7120526045       -5.0769117378        2.0945091136
 C          2.6577996764       -3.9765055884        1.2494226955
 C          3.5683943210       -3.4247307889        0.2851674040
 C          4.8217575790       -3.8278773393       -0.1616231078
 C          5.4402990962       -3.0772461033       -1.1480014159
 O          6.6699995776       -3.3478543752       -1.6761795770
 C          7.3964620656       -4.4303878745       -1.1511455099
 C          4.7952106407       -1.9572886080       -1.6947063115
 C          3.5539852414       -1.5515251086       -1.2594395415
 C          2.9495716651       -2.2757047396       -0.2428943383
 C         -0.5077654484       -1.3458088859       -0.2139028149
 H         -8.3633035898       -4.6954094613        1.4307880611
 H         -7.7519687866       -4.3659580818       -0.2090424435
 H         -8.3364036621       -3.0243088649        0.8167906170
 H         -4.2543295693       -3.5935698406        2.3602820037
 H         -2.4132306766       -2.1745543704        1.5314172514
 H         -6.8026660398       -2.2907356259       -0.8215944480
 H         -6.6196862101       -0.6216609102       -2.9203237037
 H         -5.8809012788        0.9945488121       -4.6395424683
 H         -3.5959387494        1.8768817465       -4.6210958518
 H         -1.9887752071        1.2125598520       -2.8862768741
 H         -1.6526741000        1.8155886944       -0.6428728792
 H          2.7024434084        1.5702737778       -1.8289784774
 H          4.5373266188        2.9557392365       -2.6895772187
 H          4.7510331339        5.3124343252       -2.0552743354
 H          3.0948264935        6.3678855579       -0.5538888391
 H          1.0186123124        6.8994600129        1.0813382813
 H          0.4577215910        8.1657506828        2.9906757656
 H         -1.1444042512        8.9097361275        3.2161398923
 H         -0.5325147751        8.6100517246        1.5707876647
 H         -2.2690692363        4.7284946009        2.7531524765
 H         -1.5414441315        2.6557009993        1.6222513027
 H         -0.3771568470       -2.6986885130        2.1754971933
 H         -0.2679388110       -4.6710971106        3.6429374940
 H          1.6676268493       -6.1719865528        3.5993479864
 H          3.5755532435       -5.7245461079        2.0931513520
 H          5.2775375892       -4.7082994620        0.2611273146
 H          8.3455001072       -4.4362249579       -1.6850341694
 H          6.8815980335       -5.3822259229       -1.3211788838
 H          7.5851486566       -4.3057774836       -0.0797275315
 H          5.3063986191       -1.4184023891       -2.4758917116
 H          3.0729987350       -0.6985110315       -1.7114697465
 H         -0.8302602853       -2.3719578107       -0.2952155588
