85
 energy: -138.801699443042 gnorm: 0.000041034730 xtb: 6.7.1 (edcfbbe)
C           -7.81890971379508       -3.99125226090542        0.77755526349621
O           -6.55035527300727       -3.89217180058304        1.37452192243237
C           -5.62893409932946       -3.06215410852930        0.80393742524625
C           -4.39025573806268       -3.01219171768394        1.46191077143899
C           -3.35643697592278       -2.22622100910060        1.00405896056950
C           -3.56044199233572       -1.48058815885867       -0.14813830893933
C           -4.80971416434668       -1.49977449112444       -0.79906482689164
C           -5.84891798475783       -2.29465745586117       -0.32841979708049
C           -4.71176898169610       -0.58665247098464       -1.90339519378908
C           -5.59538245240382       -0.20738770929235       -2.90519374656282
C           -5.16733911899825        0.69323385317067       -3.85958149904746
C           -3.86986028030115        1.19832853496548       -3.83351148770882
C           -2.97294573786005        0.83573474707285       -2.84653466010578
C           -3.40679518621560       -0.04477047189483       -1.86604874367182
N           -2.71637493682432       -0.59188426918939       -0.79808047879877
C           -1.39771616584226       -0.30953105782998       -0.45074128146333
C           -0.96132368194986        1.01266629574872       -0.40415775337343
C            0.35672285591232        1.31071270900240       -0.08785820175574
N            0.76939081766121        2.63878189867538       -0.02319236524639
C            1.88344958502098        3.18434603918850       -0.63677164445997
C            2.78424006417190        2.60140445561366       -1.51408756389697
C            3.79984058512115        3.39052910148729       -2.01788458742529
C            3.91221379525224        4.73528397457334       -1.67480497450270
C            2.99636878617842        5.33087333615016       -0.83123982343603
C            1.96850735096176        4.55603674703355       -0.31050826244253
C            0.85221394152037        4.84503569800362        0.54630185379053
C            0.43565177541562        6.00631745092086        1.18741036331045
C           -0.69964226143890        5.94889473572157        1.97953972927377
O           -1.22792800501916        7.00737291979960        2.66241640433814
C           -0.57753990016875        8.24998300596563        2.57168608679329
C           -1.39346171797793        4.73919800202703        2.13622124024915
C           -0.98851557157853        3.58247182733629        1.50712651308252
C            0.13304380180959        3.64287945251382        0.69265883886214
C            1.25779464673871        0.26877464286633        0.19840695112984
C            2.55401535482424        0.55893692409910        0.67460337563916
N            3.58480653383017        0.79179568922152        1.12058560104632
C            0.81916194170271       -1.06682899354259        0.12857037149777
N            1.71314478017827       -2.10704434455474        0.37440194558465
C            1.53163546208855       -3.13569442667952        1.27996139886766
C            0.48428783452055       -3.36463647216806        2.15840836886724
C            0.56305363701631       -4.46740764847522        2.98719269173856
C            1.66385996063814       -5.31968858563762        2.95668164012020
C            2.72429331370557       -5.07911836151527        2.10586502358549
C            2.66591057116484       -3.97833674931611        1.26149430422337
C            3.56942490644107       -3.42886625562795        0.28925185706999
C            4.81599751867315       -3.83717331054490       -0.17189019858012
C            5.42634873949033       -3.08903462955257       -1.16525690962101
O            6.64763190202753       -3.36592772607694       -1.70947469887389
C            7.36953147628777       -4.46046807212432       -1.20357094998886
C            4.78090052690938       -1.96483573645759       -1.70290777973722
C            3.54650472552825       -1.55382958200765       -1.25343525386727
C            2.94959442026367       -2.27716492039121       -0.23190383818558
C           -0.50306960311616       -1.34505037032058       -0.18667226777586
H           -8.37716139260224       -4.70087641402418        1.38614638213570
H           -7.75272507077318       -4.36895496196638       -0.24828718677940
H           -8.34012403915876       -3.02805823655532        0.77708526130034
H           -4.27224290068728       -3.61110918251361        2.35057433092131
H           -2.42395237145325       -2.18866669679511        1.54373323682450
H           -6.79489715939835       -2.29145977901305       -0.84481596664020
H           -6.59390110092615       -0.61624487053382       -2.93665134523194
H           -5.83934932349221        1.00364532732009       -4.64545925358732
H           -3.55452148769750        1.88575200206739       -4.60423523292123
H           -1.96374766430090        1.21835796448722       -2.85567816285180
H           -1.65077126634038        1.81607095887871       -0.60950141754707
H            2.70004682793002        1.56608877420912       -1.80614705144623
H            4.51926332756971        2.95430788828931       -2.69429507771798
H            4.72239380373789        5.31876710461952       -2.08563006417192
H            3.07081503361705        6.37862903752279       -0.58219264285667
H            1.00299408253110        6.91394532448583        1.06181187272786
H            0.44539622299132        8.19819206476511        2.95920980715105
H           -1.16024489501634        8.93397408471660        3.18677587676170
H           -0.55708106505286        8.61960178242793        1.54089897103256
H           -2.26109177479133        4.74066148987992        2.77630551981419
H           -1.52816702467224        2.66064961744050        1.66154730919968
H           -0.36066018842458       -2.69523883712664        2.20941612788477
H           -0.24383158853781       -4.66869288327419        3.67600897377289
H            1.68912237285858       -6.17251243472540        3.61830307182573
H            3.58648176951968       -5.72854235508604        2.09797895279072
H            5.27279995805971       -4.71978154776435        0.24521194138849
H            8.30883779247933       -4.47493829353500       -1.75426607479638
H            6.83963143811446       -5.40461902938203       -1.36996740048005
H            7.57872444248496       -4.34480289356200       -0.13497372962678
H            5.28615131238032       -1.42707122580781       -2.48879458429170
H            3.06444489751644       -0.69776696345981       -1.69879392740215
H           -0.82459955334010       -2.37143339190645       -0.26901225263065
