85
 energy: -138.713693673706 gnorm: 0.000102921769 xtb: 6.7.1 (edcfbbe)
C           -7.81471065518299       -4.05431857754850        0.72085686394625
O           -6.55052588515426       -3.93187293925808        1.32349822912587
C           -5.63817197434381       -3.09243255543103        0.75998753886560
C           -4.40417697290623       -3.02301672503604        1.43489058434488
C           -3.37841943978560       -2.22729198105263        0.98200665234110
C           -3.58016595687499       -1.48431491137840       -0.17596673920389
C           -4.83124648833636       -1.52018281082989       -0.84257165943864
C           -5.86000368667019       -2.33129566561247       -0.37865183046720
C           -4.73221488304133       -0.60563484646162       -1.94020686806643
C           -5.60919433278537       -0.21358735184187       -2.94305698790777
C           -5.17024490843533        0.68739449304978       -3.89390622323547
C           -3.86804946494076        1.18522295012377       -3.86450084354287
C           -2.97800377311057        0.81493450614788       -2.87302121286145
C           -3.42030147309476       -0.06527905799635       -1.89594858110636
N           -2.74024841708146       -0.60086783718594       -0.81804420128177
C           -1.42877888899557       -0.30889958875813       -0.45782026614963
C           -0.97323989052485        1.03107231714878       -0.43327947732515
C            0.32328338376478        1.33220270300207       -0.13164848555602
N            0.74810459430954        2.66402237905840       -0.05137949005871
C            1.85437629563744        3.19957838810679       -0.67686799514646
C            2.73160782840587        2.60962174047706       -1.57487761976212
C            3.75854416567399        3.38469547665255       -2.07844478523074
C            3.90364897029744        4.72111501394492       -1.71555986431365
C            3.01362791097503        5.32419954908702       -0.84598496006044
C            1.97732859601434        4.56451363807994       -0.32410964372888
C            0.88287705176017        4.85418902275412        0.56064639054307
C            0.48891786161115        6.00472526324683        1.22909312171341
C           -0.63503100892404        5.94226496282459        2.04274466470431
O           -1.13882786613338        6.99036861724810        2.75176348424102
C           -0.48348694587969        8.23200669312121        2.67429151630880
C           -1.34042854458935        4.73472724884649        2.19083044276125
C           -0.96035971073462        3.58887451260665        1.53211064247629
C            0.15129989709772        3.65146561068612        0.69836437809336
C            1.27467821728121        0.28559247405226        0.17993651154208
C            2.51722973395914        0.57215374971787        0.69824976107474
N            3.57550022902413        0.80517732280391        1.11927811257150
C            0.79251480572767       -1.07871569765008        0.10961785260147
N            1.69615459611689       -2.11449957451154        0.37522118402039
C            1.53721486229818       -3.10477088031780        1.32186970312989
C            0.50262756985808       -3.30634507317112        2.22279328845538
C            0.59750730991615       -4.37927002738788        3.08920136995766
C            1.69903082553460       -5.23095301690157        3.06871034564244
C            2.74698778715212       -5.01956001265332        2.19134205182627
C            2.67389182185141       -3.94888055390075        1.31272713572718
C            3.55675685904979       -3.42716873351746        0.30587135457254
C            4.80085058067503       -3.82831028454967       -0.15843874331156
C            5.38741160461180       -3.09787793489874       -1.18464409487265
O            6.60026439794498       -3.37345950148511       -1.73564032447088
C            7.34881113419833       -4.44506768623477       -1.21718467818376
C            4.71880770075817       -1.99526219633108       -1.74696379473635
C            3.48623708844623       -1.59072524517549       -1.29501019700655
C            2.90940469050895       -2.29730437479975       -0.24494414733998
C           -0.51424399632346       -1.35126569330810       -0.17552728763787
H           -8.36478474459508       -4.76950173003894        1.33040750075790
H           -7.73699612767679       -4.43584056725268       -0.30253709251391
H           -8.35029104472747       -3.09929006561615        0.71275127488600
H           -4.29110214162072       -3.61469500679594        2.32875204399743
H           -2.44982249983270       -2.17290036216983        1.52669535463405
H           -6.80174331957109       -2.34707011420656       -0.90295013857491
H           -6.61219533560405       -0.61158556304006       -2.97934662498909
H           -5.83807891601882        1.00388213981980       -4.68115667922886
H           -3.54589817106531        1.86913804158324       -4.63526835567342
H           -1.96535817879276        1.18786856120863       -2.87489363506094
H           -1.67328839310771        1.82762157942305       -0.63533753912894
H            2.61924779202279        1.57950278357881       -1.87322150813163
H            4.46140698804320        2.94505354066636       -2.76984650608933
H            4.72057648354951        5.29441639823009       -2.12760362560759
H            3.11983500149296        6.36489019909622       -0.57879637110405
H            1.05999012277736        6.91121893041407        1.11099966246776
H            0.54554706690363        8.16687474124068        3.04237206807609
H           -1.05181059443032        8.90618177369968        3.31314864352970
H           -0.47959279859503        8.62134320364614        1.65085412737560
H           -2.19511192687301        4.73519053429850        2.84803040217015
H           -1.50418311157941        2.66763470895089        1.67222160598361
H           -0.34237484479980       -2.63642676858882        2.25818140870571
H           -0.19674958872841       -4.55818527562369        3.79842823075243
H            1.73694996257796       -6.06128357714732        3.75779581699443
H            3.60845667592567       -5.67016391036375        2.19257051467437
H            5.28214675302835       -4.68769998586395        0.27955223680199
H            8.27718541213397       -4.45930945485340       -1.78601170210980
H            6.82941432992574       -5.39997202232300       -1.35001992594583
H            7.57653725213204       -4.29916787746332       -0.15646727052700
H            5.21021079957652       -1.47384359456668       -2.55235106664046
H            2.98310568519059       -0.75148906034804       -1.74721079794596
H           -0.84271671506470       -2.37692777789443       -0.25267307957639
