  106
       -171.36572615
 C         -8.0962370358       -1.6454486106        1.6019358160
 C         -8.2231385870       -0.3610084328        1.0956588753
 C         -7.0986615887        0.4081446640        0.8677786764
 C         -5.8358215359       -0.1104930165        1.1430945830
 C         -4.6403746938        0.6687932181        0.8350771930
 N         -4.7644958521        1.9669425113        0.5857689794
 C         -3.6404381148        2.6140283653        0.2906942130
 C         -3.6963834067        4.0620351711        0.1095027216
 C         -4.8865216662        4.7525675901        0.3303456010
 C         -4.9310090225        6.1225075339        0.1581909611
 C         -3.7938833669        6.8117351807       -0.2343048904
 C         -2.6075502625        6.1287318650       -0.4545014687
 C         -2.5548454892        4.7593328735       -0.2838775214
 N         -2.4641568700        2.0138065372        0.1191185219
 C         -2.4487464175        0.7058044742        0.3321201071
 C         -1.1989766410       -0.0079196894        0.0504217231
 C          0.0073786146        0.6421602788        0.2590077590
 C          1.2228050834        0.0017880516        0.0628168785
 C          2.4586605313        0.7303551773        0.3639595510
 N          2.4344246926        2.0497040208        0.2317665174
 C          3.5940338798        2.6734735706        0.4270286073
 C          3.6034864560        4.1322393489        0.3586082278
 C          4.7848556627        4.8369817356        0.5824779539
 C          4.7861621701        6.2171428479        0.5251261477
 C          3.6137405002        6.9029305965        0.2468430721
 C          2.4359959513        6.2059055607        0.0240711720
 C          2.4269206305        4.8259848865        0.0780704866
 N          4.7431999688        2.0419463293        0.6527776674
 C          4.6604429003        0.7281028221        0.8215520795
 C          5.8847031044       -0.0344669253        1.0482450249
 C          5.8136498718       -1.3419904044        1.5228904136
 C          6.9682064341       -2.0847376514        1.6714912217
 C          8.1964774886       -1.5317970230        1.3447130753
 C          8.2714922997       -0.2280973954        0.8790623333
 C          7.1213757579        0.5226277108        0.7330119021
 N          3.5251923690        0.0379354998        0.7419875946
 C          1.2306654569       -1.3231708982       -0.4079685821
 N          2.4270826461       -1.9821466066       -0.7009629242
 C          3.4733457275       -1.4569993866       -1.4385300778
 C          3.5139265339       -0.3090050969       -2.2164449076
 C          4.7051439400        0.0032933570       -2.8421307936
 C          5.8256225377       -0.8154847428       -2.7211114888
 C          5.7751351112       -1.9849183953       -1.9899296083
 C          4.5898838191       -2.3157298766       -1.3474899726
 C          4.1912930688       -3.4153722924       -0.5132773528
 C          4.8484427111       -4.5470206150       -0.0509168613
 C          4.1718214110       -5.4079463865        0.7908878586
 C          2.8624247168       -5.1424074670        1.1832443937
 C          2.1891144255       -4.0211210014        0.7355477862
 C          2.8547324674       -3.1664244186       -0.1287325936
 C          0.0220906558       -1.9706316889       -0.6400902370
 C         -1.1927453578       -1.3335289776       -0.4180565615
 N         -2.3862437128       -1.9963412262       -0.7166495540
 C         -3.4338902242       -1.4609889191       -1.4454409169
 C         -3.4632059094       -0.3218959968       -2.2369461058
 C         -4.6585703396        0.0080695667       -2.8455671299
 C         -5.7941714706       -0.7846135515       -2.6940103957
 C         -5.7555695922       -1.9461201888       -1.9495508799
 C         -4.5658966813       -2.2950192043       -1.3248560866
 C         -4.1760128301       -3.3912154763       -0.4820966724
 C         -4.8487576461       -4.5022452065        0.0067926660
 C         -4.1766334812       -5.3646789145        0.8507033513
 C         -2.8555676091       -5.1216496236        1.2174444644
 C         -2.1666028238       -4.0209822800        0.7429833141
 C         -2.8290342188       -3.1639321257       -0.1211169598
 N         -3.4879755791        0.0062025340        0.7675957820
 C         -5.7126128506       -1.3986364093        1.6595780434
 C         -6.8412240144       -2.1604407089        1.8877960151
 H         -8.9775909141       -2.2463303480        1.7742018683
 H         -9.2027693607        0.0384347447        0.8780473828
 H         -7.1757702533        1.4072297843        0.4677374163
 H         -5.7597647212        4.1986293755        0.6386464676
 H         -5.8531713818        6.6580088154        0.3307283059
 H         -3.8324933194        7.8830266101       -0.3686740463
 H         -1.7244458333        6.6685180778       -0.7640196153
 H         -1.6430153304        4.2082250609       -0.4575054975
 H          0.0023232585        1.6602640749        0.6165594054
 H          5.6858412242        4.2851288134        0.8017448457
 H          5.7018765359        6.7630799642        0.6990771947
 H          3.6179680099        7.9824492875        0.2039376000
 H          1.5240444178        6.7435937947       -0.1902526959
 H          1.5208211319        4.2654944091       -0.0932503711
 H          4.8498309695       -1.7585044368        1.7718633201
 H          6.9093524113       -3.0991067534        2.0378745516
 H          9.0981147529       -2.1171079326        1.4541566048
 H          9.2306993994        0.2001514992        0.6271715641
 H          7.1575620682        1.5357427377        0.3632344959
 H          2.6494703553        0.3321308947       -2.3169833687
 H          4.7681386141        0.9038114967       -3.4351565077
 H          6.7426023483       -0.5303002046       -3.2146854500
 H          6.6388283270       -2.6273253615       -1.9088514308
 H          5.8695551549       -4.7413610148       -0.3424957537
 H          4.6634703122       -6.2958163986        1.1603056664
 H          2.3629280643       -5.8248652609        1.8551448411
 H          1.1820282401       -3.8140732446        1.0634393938
 H          0.0281309890       -2.9718888401       -1.0463165499
 H         -2.5872067993        0.2989547037       -2.3612410756
 H         -4.7130972313        0.9024234797       -3.4486677948
 H         -6.7135467414       -0.4850270222       -3.1744225107
 H         -6.6310715424       -2.5687066365       -1.8439647698
 H         -5.8784511396       -4.6788652725       -0.2651164157
 H         -4.6808750319       -6.2362814364        1.2412924766
 H         -2.3590600379       -5.8052637426        1.8904580465
 H         -1.1496098246       -3.8316596099        1.0501555302
 H         -4.7286493955       -1.7857185395        1.8742034540
 H         -6.7415465340       -3.1614722391        2.2809141215
