70
 energy: -106.604833888227 gnorm: 0.000024817750 xtb: 6.7.1 (edcfbbe)
C           -8.19957256100907       -2.80377714868252       -0.99962803740218
C           -8.27404481690559       -1.49343154582419       -1.44217236311193
C           -7.29300777505394       -0.58316465709601       -1.09563362204060
C           -6.23010503897312       -0.98077783302125       -0.28962011176192
N           -5.23535332525294       -0.06019796991873        0.06866568269686
C           -5.45003496322983        1.19323405635831        0.60992080560903
C           -6.64029685158683        1.81161415183380        0.96382393781568
C           -6.56994937721999        3.07589181736135        1.51786886279092
C           -5.34880877370683        3.71296573017300        1.72534459516800
C           -4.15943433679000        3.09259200325022        1.39731666563006
C           -4.20503751470038        1.82188632354664        0.84096069942920
C           -3.19421403512772        0.89661837355889        0.40771442438451
C           -1.81191701000240        0.95519107997041        0.36513189624821
C           -1.09735405907718       -0.13259338330372       -0.13501009838564
C            0.36226530827540       -0.10420244836139       -0.18463918549201
C            1.11557717818827       -1.14167845588772        0.44992686454163
C            0.49545450505158       -2.14465351985735        1.19824586474968
C            1.22317560890299       -3.19753347195292        1.74947275984462
C            2.58503992339287       -3.26343612688084        1.55628232929141
C            3.23651639436786       -2.24450339484524        0.86377904907022
C            2.53839005647974       -1.15004294746593        0.34892017942126
C            3.20845009702851       -0.06121594023756       -0.29352454485189
C            4.66548038356431       -0.04364314328212       -0.37505363207120
C            5.30174516467726        0.06629720750261       -1.63646746473184
C            6.66027211316568        0.06944227408233       -1.74118186075806
C            7.48042187926206       -0.01682791488584       -0.59373032471811
C            8.88573484392433       -0.00575020408487       -0.66817180846222
C            9.64663025238506       -0.08893643240449        0.46651571958288
C            9.03266965207985       -0.18774647702323        1.72431097878688
C            7.66996335540390       -0.20358583838025        1.82944453614106
C            6.85682509928114       -0.11997868568341        0.67823448635653
C            5.45308733217224       -0.13714369919673        0.75540733831458
C            2.45665884504021        1.01239018836783       -0.86761243684017
C            3.08347131731747        2.13344981167107       -1.41588506968750
C            2.35355412952364        3.13805690796838       -2.04896846259919
C            0.98433872831883        3.02942265678590       -2.14801467658567
C            0.32942233513843        1.95016636557386       -1.55772780387733
C            1.03142754207783        0.96137766509365       -0.86444778497532
C           -1.79818013281395       -1.25748479210809       -0.60677828687123
C           -3.17394458633724       -1.32802314768283       -0.58663895904680
C           -3.87629362551014       -0.25277506932617       -0.05632186841662
C           -6.15878327080707       -2.29684234337227        0.15796897253049
C           -7.13940209009256       -3.20220224827785       -0.20239920421032
H           -8.96558294157232       -3.51253966602404       -1.27551630830198
H           -9.09635647968271       -1.17976618396430       -2.06802644045875
H           -7.33526515869184        0.43330008379210       -1.45753757595037
H           -7.59101814483868        1.31988960487927        0.82299968978033
H           -7.48293810780485        3.57956098690083        1.79932829778049
H           -5.33658543938812        4.70216476627184        2.15809499815133
H           -3.21153476565643        3.57858930865854        1.57254526579769
H           -1.28784857454887        1.82044290698073        0.74250927051502
H           -0.57107049687798       -2.10408499548244        1.35866998921202
H            0.70994744481101       -3.96169138454505        2.31434986337088
H            3.15726707177000       -4.09152205608916        1.94745825473322
H            4.30421093876828       -2.30945198727780        0.72041974310905
H            4.68461635036156        0.11253345743725       -2.52242084584052
H            7.13291644180402        0.13351708216394       -2.71146622750215
H            9.35409759754299        0.07127926691310       -1.63948980098228
H           10.72494807462133       -0.07837508632373        0.40207902319793
H            9.64816010769932       -0.25104856065406        2.61007561198132
H            7.19239914110615       -0.28122982195193        2.79606999073086
H            4.98653903043786       -0.19162325807800        1.72935819913511
H            4.15629092865934        2.22999486515465       -1.34746251918345
H            2.87052283842970        3.98799376876140       -2.46905482786504
H            0.40888767017856        3.78128759432206       -2.66757167487870
H           -0.74389386788120        1.87812916821201       -1.64496258469771
H           -1.23247919860951       -2.07422465506284       -1.03082003018636
H           -3.68778524262018       -2.18890688081765       -0.98751062684905
H           -5.34282673617173       -2.59785320715618        0.79793481600662
H           -7.07953266252093       -4.22193531201108        0.14807747124288
