70
 energy: -106.666896167553 gnorm: 0.000062500795 xtb: 6.7.1 (edcfbbe)
C           -8.37622907188211        2.56133776020243        0.60873959668053
C           -8.36598417759906        1.33410444031810        1.25063262273318
C           -7.32716937623798        0.44613418170357        1.04187227711339
C           -6.29135528103039        0.77990530381830        0.17405072395834
N           -5.24076837634382       -0.12101364653844       -0.04851872503972
C           -5.37647965048630       -1.45196832711089       -0.39045731569432
C           -6.52621987782449       -2.19075746679652       -0.63098556303080
C           -6.37772117613577       -3.51705192212549       -0.98836709451616
C           -5.11895483726712       -4.10095883512140       -1.11442732583693
C           -3.97095274839135       -3.36507120950919       -0.90076958644551
C           -4.09477248977094       -2.02967494795315       -0.54076362614646
C           -3.14403138511439       -0.98835126549574       -0.27020437836181
C           -1.75731271203037       -0.94828047984984       -0.24605138344454
C           -1.12655708997643        0.24149211206407        0.08050947263049
C            0.35372139464770        0.31358199187978        0.10412160870914
C            1.05073391335473        0.66398941463041       -1.05855256684038
C            0.37506319443214        0.96822755779032       -2.26938010387441
C            1.06344350847206        1.30837181056351       -3.39258361068200
C            2.47223941135787        1.36437649671434       -3.37540802446724
C            3.15803664778693        1.07808775558726       -2.23569403191852
C            2.47884052708692        0.71970849480377       -1.04165575044751
C            3.17181809545306        0.42193391767138        0.13779278503821
C            4.65244864531149        0.46678213566640        0.15103543090167
C            5.31182672667114        1.66950948608352        0.47927852771595
C            6.67550845305144        1.73324177799960        0.49422023365893
C            7.45699304044541        0.60062308323752        0.18242318975570
C            8.86674127602066        0.63388914786003        0.18735670574205
C            9.59260833297428       -0.48244008259348       -0.12030760398166
C            8.94224808025342       -1.68313685149056       -0.44665709788634
C            7.57746145816539       -1.74776148676604       -0.46021866946201
C            6.79934982885879       -0.61328646285994       -0.14786647097405
C            5.39063954567831       -0.64794005601523       -0.15467158642017
C            2.47534837519916        0.08040164681253        1.30317292165183
C            3.15107315012243       -0.21781308026413        2.51556730834191
C            2.46187739596644       -0.54912541881044        3.64095520671507
C            1.05302963724645       -0.60445215916583        3.62363880280127
C            0.36781183544541       -0.32655217803848        2.48152493125734
C            1.04714027821624        0.02520150975449        1.28571988375187
C           -1.88219851306781        1.37539950141239        0.39676848771401
C           -3.26282947801360        1.35770857139769        0.37876808905586
C           -3.89363425472991        0.17329935448455        0.02574176484292
C           -6.30527897227729        2.01197892788227       -0.47350556459122
C           -7.34274306180447        2.89781025580803       -0.24967366993700
H           -9.18730101068291        3.25356551811984        0.77703314449720
H           -9.16749890336274        1.06942289618511        1.92438158593296
H           -7.30438616055621       -0.50232695114991        1.55755734083955
H           -7.50581513202832       -1.74343855439593       -0.55405864105595
H           -7.25783988007975       -4.11377548281636       -1.17798038133254
H           -5.04581871794385       -5.14177200306554       -1.39277004470912
H           -2.99460190164859       -3.81163401580841       -1.01413362073956
H           -1.17502772097476       -1.82864034385425       -0.47395321768605
H           -0.70428700377889        0.92365468782672       -2.27852209316240
H            0.53716129058908        1.53834242166538       -4.30760562380492
H            3.00111713913242        1.63672142889154       -4.27717973585295
H            4.23757185458575        1.11973062926305       -2.21995134344478
H            4.71570074732664        2.53870389734088        0.71805071252503
H            7.17767158410623        2.65689892495637        0.74592409299699
H            9.36270605187598        1.56080098725214        0.43931814371214
H           10.67244398068138       -0.44997682182141       -0.11491511700723
H            9.53202398684791       -2.55582182978313       -0.68715030285128
H            7.07150941802421       -2.66949051770650       -0.71083187589726
H            4.89012724635472       -1.57264867975066       -0.40691170498268
H            4.23064766915471       -0.17504909860373        2.52584190057528
H            2.98803766680266       -0.77288372592362        4.55756108994023
H            0.52398766882570       -0.87000824771900        4.52734411978039
H           -0.71157192273235       -0.36796621069417        2.46413238430949
H           -1.36355440792505        2.28466110936575        0.66415225468440
H           -3.82940159185950        2.23798321057652        0.64272174446654
H           -5.50978563928029        2.26142201595541       -1.15978297585381
H           -7.34862953371456        3.85205899607063       -0.75544165663134
