  106
       -162.46222066
 C         -1.8786137335       -1.9346230085       -0.9297471390
 C         -2.7119406131       -0.7838735038       -0.6857054183
 C         -4.0982464229       -0.9599659560       -0.4142044189
 C         -5.0446901514        0.0598616812       -0.6629443227
 C         -6.3819044102       -0.1328903885       -0.4283423345
 C         -6.8492454951       -1.3556271906        0.0652324515
 N         -8.2108688621       -1.5511180535        0.3006520277
 C         -9.0433731326       -0.6952504881        0.9949625833
 C         -8.7428731355        0.4870085930        1.6571719339
 C         -9.7705544619        1.1401227863        2.3108262734
 C        -11.0672389242        0.6310667896        2.3191644121
 C        -11.3672366692       -0.5585302107        1.6845151847
 C        -10.3515215963       -1.2323112425        1.0206910650
 C        -10.2980057028       -2.4713490305        0.2952311947
 C        -11.2506170161       -3.4248926540       -0.0363174712
 C        -10.8612360443       -4.5146024994       -0.7903863516
 C         -9.5453096075       -4.6499844383       -1.2268578329
 C         -8.5795423731       -3.7138138217       -0.9094940013
 C         -8.9582336405       -2.6307729531       -0.1284798823
 C         -5.9314560496       -2.3827995234        0.3065841440
 C         -4.5938099037       -2.1913429288        0.0708092088
 C         -2.1078729038        0.5166686183       -0.7557376177
 C         -1.0105823203        0.7506887183       -1.6123798468
 C         -0.3233906528        1.9367398429       -1.5857291118
 C         -0.6882972150        2.9457842332       -0.6906247702
 N          0.0811021551        4.1060297122       -0.5988723202
 C          1.4583280142        4.1339556045       -0.4945394023
 C          2.3585558431        3.0810164389       -0.4023976653
 C          3.6994433150        3.3892846930       -0.2741975824
 C          4.1414770352        4.7097232558       -0.2276228894
 C          3.2475689064        5.7606526310       -0.2885459535
 C          1.8946673891        5.4766055875       -0.4163372563
 C          0.7138245676        6.2929624669       -0.4788587298
 C          0.4992298097        7.6642077636       -0.4638052071
 C         -0.7964512196        8.1321799829       -0.5630552034
 C         -1.8682460416        7.2520218967       -0.6938592790
 C         -1.6796861399        5.8831841831       -0.7130496329
 C         -0.3827589683        5.4058799648       -0.5861394391
 C         -1.8050630457        2.7546069092        0.1282114399
 C         -2.5064493752        1.5738929960        0.0861657007
 C         -0.5371714727       -2.0333938740       -0.5910872931
 C          0.2746371752       -3.0803963420       -1.1226601282
 C          1.6243273164       -3.1035546151       -0.9323920101
 C          2.2809894479       -2.1054617683       -0.1799426972
 C          3.7218370929       -2.0765351254       -0.0369899506
 C          4.3970940513       -0.8574803466        0.1259117640
 C          5.7655397156       -0.8081172773        0.2545551980
 C          6.5179824364       -1.9829415377        0.2395696910
 N          7.9068487434       -1.9333863050        0.3839419765
 C          8.5910407711       -1.2260351794        1.3535678250
 C          8.1005765547       -0.4732954935        2.4113837199
 C          9.0152230525        0.1137405194        3.2648886608
 C         10.3869730995       -0.0471254819        3.0838712073
 C         10.8807451834       -0.8174639811        2.0496046443
 C          9.9810739468       -1.4169903515        1.1787829004
 C         10.1343871016       -2.2801790363        0.0407838075
 C         11.2390434747       -2.8003308563       -0.6196548567
 C         11.0320682875       -3.5988503704       -1.7270808617
 C          9.7444248086       -3.8653663315       -2.1867605521
 C          8.6296583946       -3.3582221599       -1.5465415708
 C          8.8298351354       -2.5777192349       -0.4166480201
 C          5.8620601918       -3.2038791113        0.0810912227
 C          4.4935573500       -3.2465733955       -0.0616419596
 C          1.4735472580       -1.1334425159        0.4449274272
 C          0.1226666303       -1.1027102377        0.2708088047
 H         -2.3284546944       -2.7691563354       -1.4528774946
 H         -4.7105406990        0.9901532917       -1.0966237721
 H         -7.0920364962        0.6479057341       -0.6581538303
 H         -7.7373294207        0.8792642932        1.6742634559
 H         -9.5622214873        2.0632223130        2.8311704677
 H        -11.8433988700        1.1725994449        2.8388733213
 H        -12.3680579912       -0.9625251163        1.7060782585
 H        -12.2745553624       -3.3094883583        0.2853915838
 H        -11.5861520809       -5.2686452807       -1.0579720802
 H         -9.2745306915       -5.5023133042       -1.8320439943
 H         -7.5677793275       -3.8168165132       -1.2712258001
 H         -6.2837920413       -3.3201038400        0.7114944998
 H         -3.8948489687       -2.9820533787        0.2981166798
 H         -0.7262163435       -0.0139199569       -2.3184941351
 H          0.5003653498        2.1043446838       -2.2633703131
 H          2.0210670399        2.0556084671       -0.4202130327
 H          4.4229296152        2.5898722651       -0.2067059353
 H          5.1983563629        4.9088905743       -0.1316201006
 H          3.5888489096        6.7831894737       -0.2328529802
 H          1.3312548158        8.3469505134       -0.3808455360
 H         -0.9853765535        9.1950729560       -0.5500243056
 H         -2.8686511391        7.6480089292       -0.7866359239
 H         -2.5145829266        5.2102138430       -0.8362716317
 H         -2.0823034529        3.5246749040        0.8327740293
 H         -3.3256687341        1.4177198504        0.7720868561
 H         -0.1999688844       -3.8369284733       -1.7316995614
 H          2.2113905774       -3.8790830945       -1.4022060890
 H          3.8370787315        0.0648604350        0.1097869305
 H          6.2709341622        0.1421489047        0.3434582471
 H          7.0395514366       -0.3591167506        2.5739744228
 H          8.6574628971        0.7070145294        4.0933756843
 H         11.0694105646        0.4302072378        3.7709894945
 H         11.9431464353       -0.9579275469        1.9198209846
 H         12.2371178755       -2.5779623353       -0.2737014822
 H         11.8773335919       -4.0159666999       -2.2536256169
 H          9.6139562602       -4.4785331394       -3.0661162673
 H          7.6374251145       -3.5537225719       -1.9240553228
 H          6.4351993800       -4.1189848914        0.0979790261
 H          4.0057309560       -4.2053385503       -0.1510568364
 H          1.9340643193       -0.4224421343        1.1158254493
 H         -0.4708148016       -0.3875832489        0.8172024839
