  95
  -149.129331649600        1.00000000000000      !
 O         -6.9409233159        2.4609342827        1.0431991337
 C         -6.3188605592        1.4948710359        0.6252470802
 C         -4.8692535328        1.4030532884        0.5613423340
 C         -4.1115293081        2.5117391398        0.9874362035
 C         -2.7507720756        2.5072105681        0.8490151241
 C         -2.0657061140        1.3937065771        0.3286398242
 C         -0.6610349430        1.5671229304       -0.0257019786
 C         -0.1812006228        1.1631844385       -1.2763078937
 C          1.1302509566        1.3637146117       -1.6374881980
 C          2.0270258410        1.9692514196       -0.7514982463
 N          3.3719219183        2.1382025527       -1.0867682387
 C          4.0713845640        3.2453300091       -0.5832409684
 C          3.4777115766        4.5069150793       -0.5731937074
 C          4.1666335792        5.5935402740       -0.0705125404
 C          5.4519711497        5.4406852248        0.4241196427
 C          6.0454171005        4.1884969295        0.4159110388
 C          5.3635978956        3.0946949146       -0.0809113328
 C          4.0493259007        1.2001545255       -1.8691118044
 C          3.7223787037       -0.1550051698       -1.8114520419
 C          4.4142702970       -1.0729169013       -2.5764609723
 C          5.4434488635       -0.6623702762       -3.4075426636
 C          5.7682160041        0.6830850550       -3.4757506779
 C          5.0792082410        1.6095271857       -2.7187900305
 C          1.5479269185        2.4028543649        0.4874482160
 C          0.2291934908        2.2140158906        0.8347429025
 C         -2.7859318572        0.2034652279        0.0552434794
 C         -2.1614775123       -1.0389116532       -0.2561282695
 C         -0.7795170404       -1.3280693143        0.0729634623
 C         -0.2300438943       -0.9385678100        1.3039859945
 C          1.0630696212       -1.2510948029        1.6424441041
 C          1.8832792553       -1.9577733364        0.7531554145
 N          3.2091603794       -2.2421060264        1.0638427076
 C          3.8166635189       -3.3896842688        0.5305429880
 C          5.1089334379       -3.3228373272        0.0108157970
 C          5.7010848694       -4.4527841745       -0.5188736071
 C          5.0176916416       -5.6581284885       -0.5403781160
 C          3.7336067620       -5.7282610817       -0.0241668815
 C          3.1333292694       -4.6047941350        0.5103953916
 C          3.9760922553       -1.3814899187        1.8559406312
 C          4.9509523207       -1.9036556706        2.7080155037
 C          5.7299272030       -1.0595465881        3.4742418911
 C          5.5511061238        0.3131477673        3.4093001415
 C          4.5790411378        0.8360168954        2.5720781497
 C          3.7964408427        0.0006257214        1.7996872750
 C          1.3356229748       -2.3721656822       -0.4667533005
 C          0.0332716438       -2.0756705000       -0.7893824553
 C         -2.9421329251       -2.0938935094       -0.7866581215
 C         -4.2999114858       -2.0167682979       -0.8607095073
 C         -4.9616902486       -0.8616042975       -0.3758619680
 C         -4.2096185939        0.2526581748        0.0852643831
 C         -6.3616857162       -0.7728790530       -0.3479101468
 N         -7.2360405844       -1.6971371915       -0.7437918557
 C         -8.4566417899       -1.1704910962       -0.5109430618
 C         -9.7255005513       -1.7138680052       -0.7400184314
 C        -10.8192900919       -0.9493421882       -0.4056154118
 C        -10.6840411902        0.3295349137        0.1464477117
 C         -9.4410538548        0.8932382539        0.3847715258
 C         -8.3382886627        0.1347788857        0.0517381819
 N         -6.9802914321        0.3678161669        0.1461398238
 H         -4.6410435844        3.3679648368        1.3748822626
 H         -2.1833012084        3.3936062654        1.0927755268
 H         -0.8635776583        0.7100125920       -1.9800389283
 H          1.4733227462        1.0662180200       -2.6174322515
 H          2.4788578858        4.6254642585       -0.9668250980
 H          3.6999698659        6.5672636418       -0.0724555246
 H          5.9879001135        6.2924627732        0.8140383774
 H          7.0437764656        4.0601906556        0.8072185381
 H          5.8206306859        2.1158230312       -0.0761306455
 H          2.9230999030       -0.4831071286       -1.1660560489
 H          4.1551641210       -2.1198903617       -2.5151106977
 H          5.9848133945       -1.3839804148       -3.9998717933
 H          6.5604478213        1.0154898191       -4.1300633430
 H          5.3286902579        2.6583013662       -2.7847952937
 H          2.2233010374        2.8791107537        1.1833313504
 H         -0.1097932035        2.5345960961        1.8086362211
 H         -0.8535608183       -0.4153066710        2.0132529388
 H          1.4519215804       -0.9684297352        2.6095207558
 H          5.6350961851       -2.3795296047        0.0159538229
 H          6.6995669258       -4.3892028373       -0.9246872756
 H          5.4833047145       -6.5383557115       -0.9562975259
 H          3.1980070874       -6.6657401837       -0.0313289099
 H          2.1357493862       -4.6589294478        0.9208594481
 H          5.0866519187       -2.9735242712        2.7682939697
 H          6.4773421338       -1.4773492273        4.1322290613
 H          6.1627443829        0.9698616181        4.0086406907
 H          4.4368656402        1.9051003940        2.5110436711
 H          3.0436539707        0.4140509853        1.1475185054
 H          1.9514244714       -2.9142394236       -1.1694156742
 H         -0.3506302948       -2.3789741535       -1.7517936047
 H         -2.4404750174       -3.0061913426       -1.0743373070
 H         -4.9048760487       -2.8243966726       -1.2381428807
 H         -9.8234727248       -2.6995411824       -1.1652111760
 H        -11.8124625219       -1.3410530028       -0.5709218052
 H        -11.5730704004        0.8907734335        0.3927397167
 H         -9.3280322463        1.8774268714        0.8094408397
