  48
        -80.97795753
 N          1.9757174865       -6.4524959972       -0.0946725296
 C          1.4999356969       -5.4096100133       -0.0738039478
 C          0.9142128967       -4.1230904997       -0.0474081314
 C          1.1424233410       -3.2753380761        1.0375401773
 C          0.5703660435       -2.0197941439        1.0592459494
 C         -0.2326140148       -1.6031628177        0.0000114218
 N         -0.7819431411       -0.3111493524        0.0091601433
 C         -0.0559105889        0.8644632119        0.0007388153
 C          1.3935112682        0.9596199307       -0.0210894410
 C          1.9793718839        2.0594249872        0.6101975122
 C          3.3491567792        2.2222462645        0.6196791447
 C          4.1437603860        1.2798834415       -0.0132100235
 Br         6.0407667881        1.4851983563        0.0060199046
 C          3.5858481097        0.1962147563       -0.6693712187
 C          2.2127652151        0.0409696268       -0.6765528068
 N         -0.8318427755        1.9175575958       -0.0055642032
 C         -2.1065122119        1.4508523670       -0.0076397697
 C         -3.3114260789        2.2063793892       -0.0586171683
 C         -3.2882755122        3.6031902524       -0.1222560808
 C         -4.4610661776        4.3108945043       -0.2097522701
 C         -5.6734939305        3.6247665449       -0.2402938181
 C         -5.7073596762        2.2515068472       -0.1713480823
 C         -4.5311936208        1.4928325586       -0.0689713594
 C         -4.5336775274        0.0443704080        0.0469359544
 C         -5.7294436257       -0.6828278694        0.1311804529
 C         -5.7443629458       -2.0482793713        0.2909746972
 C         -4.5491142896       -2.7522041831        0.3938643855
 C         -3.3555750985       -2.0788902438        0.3071399609
 C         -3.3177614794       -0.6909100435        0.1123391125
 C         -2.1105708256        0.0575520028        0.0144172869
 C         -0.4598394088       -2.4496180859       -1.0856593101
 C          0.1085370688       -3.7055594908       -1.1096288408
 H          1.7635400627       -3.6074988172        1.8556279267
 H          0.7395277977       -1.3540256478        1.8922682152
 H          1.3377570189        2.7822243835        1.0889674078
 H          3.7989190912        3.0706700961        1.1120442237
 H          4.2174341350       -0.5169176812       -1.1767580026
 H          1.7867900608       -0.7867788359       -1.2215327471
 H         -2.3274814218        4.0937177873       -0.1083006807
 H         -4.4492824243        5.3892687786       -0.2607368887
 H         -6.5986019152        4.1769503760       -0.3188742154
 H         -6.6690976992        1.7648922334       -0.2022178762
 H         -6.6744032152       -0.1667997082        0.0821879040
 H         -6.6858700629       -2.5731995838        0.3527914242
 H         -4.5576078216       -3.8209062044        0.5472263339
 H         -2.4327753720       -2.6275743669        0.4118973123
 H         -1.0839249575       -2.1122896908       -1.9001938485
 H         -0.0609085679       -4.3671777766       -1.9458549836
