  48
  -80.9779575300000       0.250916177072964      !
 N          1.9757174865       -6.4524959972       -0.0946725296
 C          1.4999356969       -5.4096100133       -0.0738039478
 C          0.9142128967       -4.1230904997       -0.0474081314
 C          1.1424233410       -3.2753380761        1.0375401773
 C          0.5703660435       -2.0197941439        1.0592459494
 C         -0.2326140148       -1.6031628177        0.0000114218
 N         -0.7819431411       -0.3111493524        0.0091601433
 C         -0.0559105889        0.8644632119        0.0007388153
 C          1.3935112682        0.9596199307       -0.0210894410
 C          1.9793718839        2.0594249872        0.6101975122
 C          3.3491567792        2.2222462645        0.6196791447
 C          4.1437603860        1.2798834415       -0.0132100235
 Br         6.0407667881        1.4851983563        0.0060199046
 C          3.5858481097        0.1962147563       -0.6693712187
 C          2.2127652151        0.0409696268       -0.6765528068
 N         -0.8318427755        1.9175575958       -0.0055642032
 C         -2.1065122119        1.4508523670       -0.0076397697
 C         -3.3114260789        2.2063793892       -0.0586171683
 C         -3.2882755122        3.6031902524       -0.1222560808
 C         -4.4610661776        4.3108945043       -0.2097522701
 C         -5.6734939305        3.6247665449       -0.2402938181
 C         -5.7073596762        2.2515068472       -0.1713480823
 C         -4.5311936208        1.4928325586       -0.0689713594
 C         -4.5336775274        0.0443704080        0.0469359544
 C         -5.7294436257       -0.6828278694        0.1311804529
 C         -5.7443629458       -2.0482793713        0.2909746972
 C         -4.5491142896       -2.7522041831        0.3938643855
 C         -3.3555750985       -2.0788902438        0.3071399609
 C         -3.3177614794       -0.6909100435        0.1123391125
 C         -2.1105708256        0.0575520028        0.0144172869
 C         -0.4598394088       -2.4496180859       -1.0856593101
 C          0.1085370688       -3.7055594908       -1.1096288408
 H          1.7635400627       -3.6074988172        1.8556279267
 H          0.7395277977       -1.3540256478        1.8922682152
 H          1.3377570189        2.7822243835        1.0889674078
 H          3.7989190912        3.0706700961        1.1120442237
 H          4.2174341350       -0.5169176812       -1.1767580026
 H          1.7867900608       -0.7867788359       -1.2215327471
 H         -2.3274814218        4.0937177873       -0.1083006807
 H         -4.4492824243        5.3892687786       -0.2607368887
 H         -6.5986019152        4.1769503760       -0.3188742154
 H         -6.6690976992        1.7648922334       -0.2022178762
 H         -6.6744032152       -0.1667997082        0.0821879040
 H         -6.6858700629       -2.5731995838        0.3527914242
 H         -4.5576078216       -3.8209062044        0.5472263339
 H         -2.4327753720       -2.6275743669        0.4118973123
 H         -1.0839249575       -2.1122896908       -1.9001938485
 H         -0.0609085679       -4.3671777766       -1.9458549836
  48
  -80.9779569200000       0.250754263231414      !
 N          1.9760349563       -6.4558160286        0.1829871782
 C          1.5010172396       -5.4129680095        0.1535207626
 C          0.9162287701       -4.1262722987        0.1186144579
 C          0.1580092052       -3.6780641319        1.2027986329
 C         -0.4107891382       -2.4223500447        1.1686091850
 C         -0.2309741812       -1.6069370300        0.0510753303
 N         -0.7813620481       -0.3154067142        0.0269286477
 C         -0.0556989895        0.8591031014       -0.0298711872
 C          1.3934560543        0.9556803809       -0.0572458320
 C          1.9562659209        2.0404145210       -0.7345257283
 C          3.3243978043        2.2070672861       -0.7894583711
 C          4.1410629762        1.2835575528       -0.1567601214
 Br         6.0359714865        1.4947390992       -0.2366619028
 C          3.6072197205        0.2150614869        0.5427745508
 C          2.2354878490        0.0560164517        0.5956053784
 N         -0.8312586409        1.9125490920       -0.0331320573
 C         -2.1048684135        1.4474475895        0.0291440135
 C         -3.3070810276        2.2061051104        0.0937692029
 C         -3.2816146751        3.6043087376        0.1009583184
 C         -4.4505541930        4.3167483188        0.2013963117
 C         -5.6610733056        3.6341516450        0.3024993386
 C         -5.6974232263        2.2592146384        0.2893618558
 C         -4.5257569746        1.4953094069        0.1750950939
 C         -4.5322995484        0.0434865192        0.1154094210
 C         -5.7303765924       -0.6847342656        0.1064139487
 C         -5.7515884026       -2.0551745390        0.0000732530
 C         -4.5613148678       -2.7641828964       -0.1231865363
 C         -3.3653989401       -2.0898020507       -0.1094949701
 C         -3.3197874886       -0.6954780038        0.0309212926
 C         -2.1095058648        0.0541707705        0.0559378667
 C          0.5260054759       -2.0537698173       -1.0297824796
 C          1.0977892364       -3.3090663468       -0.9982848386
 H          0.0240121779       -4.3161530617        2.0635122025
 H         -0.9991456652       -2.0621912619        1.9998496953
 H          1.2976889379        2.7482705076       -1.2122657470
 H          3.7562583977        3.0435663600       -1.3166322340
 H          4.2562115301       -0.4827734704        1.0492309094
 H          1.8294826977       -0.7600060783        1.1732281142
 H         -2.3219971771        4.0926261113        0.0330981770
 H         -4.4369658501        5.3963397867        0.2084113491
 H         -6.5827580358        4.1904106833        0.3920312356
 H         -6.6574996830        1.7757034763        0.3734434726
 H         -6.6726359779       -0.1658614397        0.1733714888
 H         -6.6947318230       -2.5807248500       -0.0039822571
 H         -4.5758160370       -3.8379876064       -0.2343669090
 H         -2.4474620380       -2.6435394206       -0.2289712048
 H          0.6590308159       -1.4113724315       -1.8873541125
 H          1.6826129762       -3.6650580618       -1.8330253556
  48
  -80.9779520800000       0.249473267604600      !
 N          2.0389475610       -6.3975496938        0.4867705064
 C          1.5473163920       -5.3651438139        0.4070901829
 C          0.9442179947       -4.0899526877        0.3135854895
 C          0.1821929452       -3.6018921571        1.3777514572
 C         -0.4007764268       -2.3554659267        1.2880973023
 C         -0.2316555341       -1.5892285843        0.1346468767
 N         -0.7884738738       -0.3027061991        0.0552878096
 C         -0.0636515029        0.8678042167       -0.0612775830
 C          1.3861397798        0.9558410112       -0.1009560402
 C          2.2230481259        0.1000383757        0.6144599339
 C          3.5957451062        0.2414222404        0.5441296386
 C          4.1354531864        1.2483327340       -0.2374610011
 Br         6.0316977088        1.4334433989       -0.3433316020
 C          3.3240614884        2.1294420292       -0.9337938648
 C          1.9544667462        1.9812171167       -0.8598236028
 N         -0.8386916214        1.9198171522       -0.1131721568
 C         -2.1123144748        1.4577853619       -0.0249711049
 C         -3.3147069201        2.2183690284        0.0006468563
 C         -3.2890854543        3.6152650368       -0.0599102715
 C         -4.4586616197        4.3314313279       -0.0041184896
 C         -5.6703593308        3.6541265263        0.1170781886
 C         -5.7066307058        2.2803462976        0.1731489718
 C         -4.5337877069        1.5121206946        0.1107928453
 C         -4.5395437514        0.0592274613        0.1315672518
 C         -5.7369563901       -0.6692270822        0.1685524380
 C         -5.7573289763       -2.0435775401        0.1409848318
 C         -4.5668914696       -2.7576200874        0.0537442533
 C         -3.3714900963       -2.0826742594        0.0252340724
 C         -3.3266607898       -0.6826801749        0.0864404217
 C         -2.1167055129        0.0674853138        0.0694641677
 C          0.5271349726       -2.0767336755       -0.9269266905
 C          1.1131452683       -3.3228883319       -0.8400616729
 H          0.0567513902       -4.2019595838        2.2667092268
 H         -0.9910056655       -1.9641249351        2.1037866236
 H          1.8114350305       -0.6662554029        1.2529237194
 H          4.2411853126       -0.4223032580        1.0985144470
 H          3.7607259562        2.9188285116       -1.5257072474
 H          1.3004446626        2.6574788894       -1.3869773595
 H         -2.3288232706        4.0997974867       -0.1440073477
 H         -4.4448600509        5.4101232123       -0.0484741030
 H         -6.5930754318        4.2136965642        0.1677717127
 H         -6.6679016582        1.8013870275        0.2693466472
 H         -6.6794515820       -0.1482251384        0.2107373588
 H         -6.6999913569       -2.5691919367        0.1717497492
 H         -4.5808428139       -3.8360700426        0.0040790375
 H         -2.4532957465       -2.6415598064       -0.0646045656
 H          0.6518598699       -1.4723559523       -1.8130297110
 H          1.6991158630       -3.7100433785       -1.6595819585
  48
  -80.9779497400000       0.248856292091022      !
 N          1.9882420537       -6.4365738701       -0.1087788861
 C          1.5125724964       -5.3934914033       -0.0896129792
 C          0.9244634079       -4.1078511710       -0.0631554705
 C          1.1558397793       -3.2583097695        1.0195750286
 C          0.5791148628       -2.0049432264        1.0434873293
 C         -0.2319948028       -1.5923652854       -0.0110662081
 N         -0.7843413842       -0.3017767797       -0.0001646489
 C         -0.0593396796        0.8744023753       -0.0083262798
 C          1.3906980925        0.9651933836       -0.0270028404
 C          2.2049277235        0.0544231412       -0.6993096158
 C          3.5791074187        0.1993239985       -0.6848596966
 C          4.1425787028        1.2643889120       -0.0034836275
 Br         6.0412357663        1.4533964768        0.0288103747
 C          3.3530896240        2.1991573806        0.6467678004
 C          1.9820780759        2.0472775294        0.6290029958
 N         -0.8354269706        1.9270406418       -0.0141360830
 C         -2.1100932026        1.4592591949       -0.0155417827
 C         -3.3159301102        2.2134078218       -0.0666647328
 C         -3.2948755039        3.6098653058       -0.1362245888
 C         -4.4688345852        4.3158894374       -0.2246334834
 C         -5.6804712308        3.6283986052       -0.2493412637
 C         -5.7123741085        2.2552697731       -0.1745401603
 C         -4.5351352327        1.4984351050       -0.0719948984
 C         -4.5359391201        0.0503949481        0.0491967081
 C         -5.7304792424       -0.6776383314        0.1424954261
 C         -5.7430692355       -2.0423791695        0.3086197034
 C         -4.5465640565       -2.7446806717        0.4084732026
 C         -3.3541830562       -2.0706402623        0.3120578734
 C         -3.3190572442       -0.6834568428        0.1114150320
 C         -2.1131225161        0.0660202755        0.0070267721
 C         -0.4621996796       -2.4406063769       -1.0946719069
 C          0.1108087014       -3.6944190180       -1.1207743901
 H          1.7827021253       -3.5874994190        1.8346649726
 H          0.7505228287       -1.3380026671        1.8751342970
 H          1.7739569419       -0.7595142365       -1.2616555189
 H          4.2070437996       -0.5069771909       -1.2058883648
 H          3.8078229957        3.0335155654        1.1582667753
 H          1.3441195011        2.7644753730        1.1208522146
 H         -2.3349372723        4.1022482390       -0.1266960617
 H         -4.4579640798        5.3940317040       -0.2809518610
 H         -6.6066012822        4.1788836582       -0.3281670094
 H         -6.6736382848        1.7673899219       -0.2013095087
 H         -6.6762806779       -0.1628256312        0.0962058010
 H         -6.6837230998       -2.5679012836        0.3776035578
 H         -4.5530755007       -3.8127419984        0.5667474481
 H         -2.4300892210       -2.6178872330        0.4141283579
 H         -1.0925510941       -2.1067343059       -1.9057094973
 H         -0.0613229317       -4.3576520314       -1.9550414872
