  92
       -148.52178025
 O         -8.0040323873       -3.5871336687        0.3383872286
 C         -7.3185767898       -2.6008896427        0.1356788648
 C         -7.9114220074       -1.2984762939       -0.2332766369
 C         -9.2983221308       -1.1709798891       -0.2561114251
 C         -9.8885276892        0.0305820462       -0.6009834359
 C         -9.0969108599        1.1188988329       -0.9381824727
 C         -7.7192631191        1.0004966457       -0.9290157410
 C         -7.1131581257       -0.2007618682       -0.5723796289
 C         -5.6327700866       -0.2881315561       -0.5993844387
 O         -4.9564927376        0.6001342087       -1.0808842802
 C         -5.0601945238       -1.5235238001       -0.0321076775
 C         -5.8460311653       -2.6291041378        0.2743807835
 C         -5.2604954513       -3.8223663976        0.7415460962
 C         -3.9052921092       -3.9501234074        0.8749281757
 C         -3.0778995262       -2.8530672262        0.5782101179
 N         -1.7405426114       -2.9857931559        0.5669345320
 C         -0.9865175577       -1.9453577044        0.3010123471
 C          0.4383378872       -2.1831286773        0.1072176577
 C          1.2003863577       -1.4199522357       -0.7817751950
 C          2.5578694289       -1.6168037421       -0.8847051438
 C          3.1979078548       -2.5897847205       -0.1102077295
 N          4.5807832588       -2.7360416728       -0.1729205736
 C          5.1666201173       -4.0030569202       -0.0596530567
 C          4.5605276741       -5.1118213285       -0.6495726637
 C          5.1387755052       -6.3612424750       -0.5377096411
 C          6.3288446172       -6.5246625792        0.1523675561
 C          6.9363606989       -5.4253568485        0.7366610418
 C          6.3616448032       -4.1730795539        0.6382580171
 C          5.3932101018       -1.5974670109       -0.2690365244
 C          5.0582590325       -0.4322623842        0.4202303463
 C          5.8764705749        0.6777543239        0.3479787889
 C          7.0334416065        0.6459322600       -0.4135481345
 C          7.3660075895       -0.5059534390       -1.1071991491
 C          6.5544956061       -1.6221499711       -1.0394717345
 C          2.4262367396       -3.3992387578        0.7279450774
 C          1.0684962087       -3.1989381588        0.8288669700
 C         -1.5846888121       -0.6331735511        0.2420843012
 C         -0.8395176242        0.6175649373        0.3193533166
 C          0.3861136365        0.7423379708        0.9780558346
 C          1.0755421114        1.9335264512        0.9474555270
 C          0.5487039012        3.0440913013        0.2830137106
 N          1.2755038559        4.2334467121        0.2200543495
 C          0.6168886629        5.4621585648        0.3459253553
 C          1.0153657343        6.5670787423       -0.4053359583
 C          0.3640044592        7.7766144225       -0.2606733231
 C         -0.6956815606        7.9027465276        0.6225016921
 C         -1.1010890805        6.8051339023        1.3640463541
 C         -0.4509967960        5.5936431888        1.2333496020
 C          2.6495492521        4.1885187002       -0.0409777368
 C          3.1696329727        3.2273283443       -0.9083754855
 C          4.5210591950        3.2030945789       -1.1907387329
 C          5.3741624660        4.1299616008       -0.6136330358
 C          4.8652211769        5.0781916578        0.2585565293
 C          3.5147921393        5.1097838692        0.5481846413
 C         -0.7117022636        2.9422064576       -0.3110759814
 C         -1.3916693331        1.7465648043       -0.2943828016
 N         -2.8854422997       -0.5237983280        0.1334000762
 C         -3.6619823786       -1.6093312319        0.1933307567
 H         -9.8946051196       -2.0336762445        0.0019875769
 H        -10.9646458387        0.1201200006       -0.6104950709
 H         -9.5557358137        2.0575127039       -1.2114955862
 H         -7.0844265134        1.8324970067       -1.1958303899
 H         -5.9240801462       -4.6458201182        0.9611823571
 H         -3.4466731397       -4.8794534152        1.1752402257
 H          0.7190475537       -0.6809330507       -1.4045864262
 H          3.1428339959       -1.0180876557       -1.5672091165
 H          3.6380958253       -4.9842546455       -1.1970156003
 H          4.6606886643       -7.2117666632       -1.0007520379
 H          6.7798754601       -7.5017741607        0.2340484222
 H          7.8616237298       -5.5442333704        1.2809182982
 H          6.8319404186       -3.3195367600        1.1042340661
 H          4.1598770406       -0.4085013910        1.0195147818
 H          5.6129469595        1.5711466710        0.8940359464
 H          7.6721373202        1.5143011006       -0.4648224757
 H          8.2623700269       -0.5359951639       -1.7090230916
 H          6.8138139479       -2.5205016906       -1.5802797490
 H          2.9080266786       -4.1665206674        1.3156846566
 H          0.4730532721       -3.8039611662        1.4946937908
 H          0.7903861063       -0.0894240257        1.5350460833
 H          2.0303211271        2.0218255576        1.4451485677
 H          1.8331780856        6.4691437345       -1.1041189539
 H          0.6816536568        8.6249021844       -0.8489529893
 H         -1.2024764247        8.8494592290        0.7313094818
 H         -1.9249395365        6.8942773994        2.0566339426
 H         -0.7623869069        4.7414744613        1.8194321255
 H          2.5046944826        2.5100261252       -1.3666694802
 H          4.9102430112        2.4600790772       -1.8710022297
 H          6.4288570139        4.1125208449       -0.8421330789
 H          5.5251222779        5.7974007683        0.7212282969
 H          3.1197606318        5.8484393232        1.2301943021
 H         -1.1367558137        3.8041821541       -0.8036219794
 H         -2.3556601622        1.6497978528       -0.7696427132
