  69
       -107.49872676
 C          8.5602983662       -0.2143967221        1.7629077856
 C          7.2889115235       -0.4255520084        1.0054110796
 C          6.1814372599        0.3241187077        1.1454240112
 C          5.0131265888        0.0345810988        0.3624737176
 C          3.8428150268        0.7623896234        0.4594988143
 C          2.7242062410        0.4217379349       -0.3156202826
 N          1.5397093687        1.1361581698       -0.2040095900
 C          1.4228545708        2.5282339728       -0.1791042425
 C          2.4009690640        3.4905976287       -0.2898119076
 C          2.0069507329        4.8307080364       -0.2649098978
 C          0.6683163457        5.1809926939       -0.1372196909
 C         -0.3238971257        4.2195210552       -0.0530809203
 C          0.0453901496        2.8739973742       -0.0881361623
 C         -0.6820033730        1.6542911944       -0.0734959852
 C         -2.0261675639        1.3279660115       -0.0162090568
 C         -2.4128537674       -0.0173532564        0.0140578088
 C         -1.4413158722       -1.0635937610        0.0201005703
 C         -0.0965862534       -0.7325737992       -0.0560267795
 C          0.2908820494        0.5943861883       -0.1364699728
 C         -1.8353338207       -2.5194166223        0.1226487004
 C         -1.2859862663       -3.2708661673       -1.1059422572
 C         -1.2271438081       -3.1071364819        1.4110582627
 C         -3.3347675588       -2.7071600186        0.1675052964
 C         -3.8704054446       -3.9846384143        0.2505146385
 C         -5.2351239639       -4.2061620219        0.2821792390
 C         -6.1042844541       -3.1271094032        0.2245511468
 C         -5.6028001383       -1.8478910202        0.1460438596
 C         -4.2194998901       -1.6190189379        0.1240217639
 N         -3.7457509183       -0.3228686736        0.0591177805
 C         -4.6939202739        0.7442198783        0.0495557259
 C         -5.1850795616        1.2406761841        1.2507788704
 C         -6.1038891215        2.2753733278        1.2375280246
 C         -6.5304934978        2.8122672737        0.0332334714
 C         -6.0376336041        2.3149221746       -1.1628583210
 C         -5.1185105117        1.2802948671       -1.1596714558
 C          2.8084439178       -0.6651805761       -1.2158730091
 C          3.9618146576       -1.3840280093       -1.3279460876
 C          5.0928895427       -1.0646640029       -0.5382961567
 C          6.2907491857       -1.8385628561       -0.6529909628
 O          6.4636597718       -2.8012975790       -1.3868394121
 O          7.3674217948       -1.4698647877        0.1480053598
 H          8.7906225052       -1.1018164214        2.3505860187
 H          8.4751930296        0.6443530823        2.4212294792
 H          9.3824156775       -0.0602537235        1.0660150252
 H          6.1630386105        1.1464898194        1.8414401162
 H          3.7708576169        1.5674545409        1.1749036217
 H          3.4402387854        3.2288926949       -0.4119293348
 H          2.7569348932        5.6010490540       -0.3515655293
 H          0.3977792610        6.2263619552       -0.1148918911
 H         -1.3632191762        4.4976911414        0.0319927009
 H         -2.7669833065        2.1100230089        0.0094490480
 H          0.6550095261       -1.5038424346       -0.0364827626
 H         -1.5368014065       -4.3264445105       -1.0614011171
 H         -1.7106555978       -2.8542492470       -2.0172454449
 H         -0.2051795737       -3.1817358410       -1.1572933025
 H         -1.4662026535       -4.1620472341        1.5086385150
 H         -0.1463820299       -3.0016259951        1.4051366415
 H         -1.6190424052       -2.5825325356        2.2802732430
 H         -3.2080895590       -4.8354294597        0.2916312832
 H         -5.6172374153       -5.2128212911        0.3476461078
 H         -7.1717359567       -3.2835324473        0.2408589265
 H         -6.2815772985       -1.0105885631        0.0994936705
 H         -4.8429816378        0.8135588681        2.1818617528
 H         -6.4853501571        2.6625867819        2.1699558779
 H         -7.2472523394        3.6189458456        0.0267960633
 H         -6.3684253144        2.7321253231       -2.1016557872
 H         -4.7252430870        0.8843144745       -2.0842523620
 H          1.9622553879       -0.8802977369       -1.8510051140
 H          4.0511100133       -2.2031880499       -2.0235126600
  69
       -107.49856727
 C          8.4674865331       -0.1612590640        1.9741335850
 C          7.2324387911       -0.3914345559        1.1639771451
 C          6.1209859424        0.3620260146        1.2334617472
 C          4.9894684359        0.0522679380        0.4055858917
 C          3.8161411031        0.7808422336        0.4326252276
 C          2.7303189078        0.4158779800       -0.3771338726
 N          1.5394784327        1.1268844770       -0.3188442983
 C          1.4224117812        2.5188358265       -0.3185041857
 C          2.4013723652        3.4780490840       -0.4478144109
 C          2.0077878260        4.8185360758       -0.4502590974
 C          0.6691600943        5.1715989584       -0.3294976686
 C         -0.3235007757        4.2125734074       -0.2247265611
 C          0.0452537311        2.8663875314       -0.2336845580
 C         -0.6815227545        1.6469042457       -0.1956051517
 C         -2.0247354033        1.3232170353       -0.1083680738
 C         -2.4123988230       -0.0210065354       -0.0529286797
 C         -1.4445276692       -1.0696303811       -0.0857797645
 C         -0.0994995549       -0.7408579235       -0.1731459359
 C          0.2904939554        0.5854866104       -0.2497481233
 C         -1.8422675590       -2.5265715541       -0.0200840819
 C         -1.3185451572       -3.2370366179       -1.2838108189
 C         -1.2130264009       -3.1615013042        1.2353061655
 C         -3.3412085693       -2.7103170753        0.0526318003
 C         -3.8812023563       -3.9880109592        0.0943259617
 C         -5.2447955865       -4.2048542958        0.1726234219
 C         -6.1080947898       -3.1204473756        0.2168203760
 C         -5.6021784859       -1.8411041796        0.1801557512
 C         -4.2205192854       -1.6176901941        0.0942749540
 N         -3.7426839833       -0.3221832051        0.0544739246
 C         -4.6795528428        0.7489714880        0.1694162035
 C         -4.9713400419        1.2699643169        1.4237716638
 C         -5.8776656705        2.3093214322        1.5383508393
 C         -6.4904422566        2.8258785799        0.4076284153
 C         -6.1965337558        2.3038118046       -0.8419764491
 C         -5.2906719345        1.2648223813       -0.9666588619
 C          2.8533551132       -0.6924803765       -1.2455929831
 C          4.0115756236       -1.4115081705       -1.2901947516
 C          5.1072871485       -1.0709818978       -0.4606940880
 C          6.3078777408       -1.8486253375       -0.4990290040
 O          6.5111471786       -2.8330705119       -1.1953396140
 O          7.3488443412       -1.4564792282        0.3366785806
 H          8.6933805834       -1.0502979055        2.5609399761
 H          8.3364712156        0.6882127042        2.6369233152
 H          9.3139040516        0.0196241624        1.3133233928
 H          6.0706566648        1.2007805599        1.9079985888
 H          3.7135224534        1.6053251944        1.1217577381
 H          3.4406026933        3.2126295022       -0.5629861295
 H          2.7578813607        5.5867644471       -0.5531505275
 H          0.3990170508        6.2173053354       -0.3280519892
 H         -1.3625974718        4.4928956790       -0.1443463887
 H         -2.7637374361        2.1067783981       -0.0781644180
 H          0.6495157112       -1.5146568557       -0.1657926317
 H         -1.5730597551       -4.2925848224       -1.2723720809
 H         -1.7565813637       -2.7863785831       -2.1723057590
 H         -0.2383327269       -3.1500572935       -1.3502011257
 H         -1.4583669894       -4.2175153857        1.3014693541
 H         -0.1316932534       -3.0635335129        1.2118915035
 H         -1.5838173139       -2.6644766610        2.1297482834
 H         -3.2231320033       -4.8426713662        0.0677763492
 H         -5.6304182850       -5.2118985166        0.2016254953
 H         -7.1743383328       -3.2729670265        0.2808257713
 H         -6.2760737679       -0.9993905967        0.2173464993
 H         -4.4850541010        0.8586482807        2.2960091319
 H         -6.1041319571        2.7153707672        2.5123716002
 H         -7.1966040982        3.6366163644        0.5004038756
 H         -6.6716474847        2.7062707891       -1.7235747086
 H         -5.0507956409        0.8502865149       -1.9346210098
 H          2.0354377007       -0.9250169271       -1.9108989467
 H          4.1309239678       -2.2483954106       -1.9597089353
  69
       -107.49855062
 C          8.6245036331       -0.1743628307        1.6152105137
 C          7.3261650070       -0.4068312379        0.9116216168
 C          6.2200298113        0.3386498576        1.0818830730
 C          5.0271038414        0.0346512831        0.3427972371
 C          3.8590972203        0.7621939632        0.4673115020
 C          2.7192806318        0.4143714202       -0.2729525763
 N          1.5396489321        1.1335614325       -0.1444206405
 C          1.4239841073        2.5262603800       -0.1367093917
 C          2.4019909280        3.4870189603       -0.2613281926
 C          2.0088737137        4.8275906986       -0.2511353591
 C          0.6707598160        5.1801707132       -0.1252216510
 C         -0.3217517582        4.2201876249       -0.0291142516
 C          0.0466310367        2.8741158728       -0.0486579066
 C         -0.6821734979        1.6554737475       -0.0206854194
 C         -2.0271199722        1.3298919911        0.0212751732
 C         -2.4142106180       -0.0152562199        0.0530660109
 C         -1.4429869352       -1.0612910669        0.0941156205
 C         -0.0975615494       -0.7312029234        0.0349791408
 C          0.2903853379        0.5943244601       -0.0660131971
 C         -1.8392918557       -2.5144406152        0.2222162397
 C         -1.1957812948       -3.3095191514       -0.9305668581
 C         -1.3275446664       -3.0487012037        1.5749466533
 C         -3.3380760114       -2.7064293490        0.1722778945
 C         -3.8757993281       -3.9844034692        0.2311960218
 C         -5.2395464591       -4.2083370776        0.1811079160
 C         -6.1057024023       -3.1309635747        0.0699829025
 C         -5.6029794071       -1.8506311133        0.0257499878
 C         -4.2210532334       -1.6196035529        0.0835357327
 N         -3.7473437464       -0.3220364785        0.0562112451
 C         -4.6964586830        0.7439683748        0.0270913099
 C         -5.2009752232        1.2476840933        1.2194306038
 C         -6.1214140625        2.2807981861        1.1893364879
 C         -6.5367898199        2.8080469352       -0.0228921950
 C         -6.0305589630        2.3032587957       -1.2103849914
 C         -5.1092361905        1.2709556067       -1.1903396784
 C          2.7784156543       -0.6831254989       -1.1628952818
 C          3.9274498145       -1.4045067658       -1.2985149726
 C          5.0812685124       -1.0753065303       -0.5465834392
 C          6.2761164716       -1.8490283927       -0.6885988829
 O          6.4272177505       -2.8229359430       -1.4124757238
 O          7.3790884008       -1.4635560264        0.0679704227
 H          9.4119880543        0.0030506507        0.8843548973
 H          8.8993702514       -1.0608044675        2.1846771929
 H          8.5501023256        0.6779952021        2.2829864853
 H          6.2221115252        1.1707314487        1.7664501387
 H          3.8079976959        1.5740024133        1.1767328903
 H          3.4407937370        3.2240576428       -0.3839136565
 H          2.7594273521        5.5961922197       -0.3477715974
 H          0.4008997839        6.2258836757       -0.1133728599
 H         -1.3607733895        4.4999556187        0.0542378174
 H         -2.7686240138        2.1117770940        0.0237286130
 H          0.6539326848       -1.5012943124        0.0812047771
 H         -1.5098919570       -4.3485904359       -0.9130012004
 H         -1.4862075348       -2.8791118061       -1.8869355458
 H         -0.1130671623       -3.2851535690       -0.8553834368
 H         -1.5155958369       -4.1146530011        1.6667205286
 H         -0.2588981878       -2.8785042074        1.6701981727
 H         -1.8311541262       -2.5371861693        2.3930637991
 H         -3.2158875509       -4.8335073652        0.3196465456
 H         -5.6233649366       -5.2154824294        0.2259127878
 H         -7.1718306472       -3.2897042334        0.0212135591
 H         -6.2792909429       -1.0139501560       -0.0553969247
 H         -4.8672072026        0.8287132377        2.1571771154
 H         -6.5116820283        2.6749297454        2.1151792410
 H         -7.2545485091        3.6136247126       -0.0426257384
 H         -6.3535668459        2.7122411151       -2.1555112147
 H         -4.7075180314        0.8671779502       -2.1079131853
 H          1.9152288293       -0.9046553870       -1.7722540644
 H          3.9962883139       -2.2320422248       -1.9864541882
  69
       -107.49837047
 C          6.5087912558       -3.2901413482        2.3494946758
 C          5.9868655484       -2.2768724431        1.3819459048
 C          4.7707276741       -1.7076257130        1.4521797415
 C          4.3712989091       -0.7412765800        0.4678171995
 C          3.1386980332       -0.1185562853        0.4808195237
 C          2.8105504158        0.8402057471       -0.4900471975
 N          1.5669670001        1.4562572366       -0.4746082664
 C          1.3386533324        2.8251756813       -0.6336212753
 C          2.2455762554        3.8511269344       -0.7767660029
 C          1.7487912458        5.1519954673       -0.8894706768
 C          0.3824494472        5.4021524249       -0.8523269175
 C         -0.5341416630        4.3792122320       -0.6787838920
 C         -0.0599794446        3.0728160109       -0.5513022280
 C         -0.6835250076        1.8178303570       -0.3202029565
 C         -1.9930588601        1.4051836574       -0.1440216635
 C         -2.2745487206        0.0451392887        0.0317896289
 C         -1.2335735382       -0.9317772987        0.0122435901
 C          0.0788350546       -0.5120085736       -0.1489968837
 C          0.3686033519        0.8349528700       -0.2861687973
 C         -1.5225978636       -2.4099864696        0.1446602261
 C         -1.0591765592       -3.1226228931       -1.1412608442
 C         -0.7478811938       -2.9613889405        1.3576922487
 C         -2.9947930050       -2.6922803968        0.3433307342
 C         -3.4344094566       -3.9990813607        0.5009337661
 C         -4.7703776507       -4.3054331237        0.6855372232
 C         -5.7080110778       -3.2840376230        0.7173849143
 C         -5.3028652237       -1.9782284327        0.5604688110
 C         -3.9496048971       -1.6644528745        0.3684363713
 N         -3.5744479973       -0.3448848375        0.2059132317
 C         -4.5942464173        0.6544003523        0.2090532219
 C         -4.9320273024        1.2932261453        1.3956163200
 C         -5.9194932720        2.2628284429        1.3919797753
 C         -6.5666878108        2.5931111769        0.2114196657
 C         -6.2264974750        1.9538223491       -0.9702287440
 C         -5.2400516582        0.9831609744       -0.9763378781
 C          3.7513690771        1.1612902021       -1.4945716349
 C          4.9655543668        0.5404521772       -1.5270725997
 C          5.3144958297       -0.4230080948       -0.5498352396
 C          6.5961219265       -1.0579499976       -0.5904386598
 O          7.4747150241       -0.8662631598       -1.4183626258
 O          6.8793750244       -1.9875604228        0.4071336084
 H          7.4373973392       -2.9319563858        2.7907705747
 H          6.7313601265       -4.2192443879        1.8268367560
 H          5.7828447875       -3.4798244223        3.1337940736
 H          4.0910595144       -1.9678694160        2.2471207630
 H          2.4408818337       -0.3277457426        1.2780726701
 H          3.3086810701        3.6688214183       -0.7866282448
 H          2.4413410330        5.9710787627       -1.0025573617
 H          0.0309201294        6.4186455921       -0.9501899317
 H         -1.5933836115        4.5817481816       -0.6367456541
 H         -2.7889715186        2.1315335927       -0.1497981412
 H          0.8790988933       -1.2319739406       -0.1882468401
 H         -1.2196518803       -4.1946951489       -1.0718894148
 H         -1.6163668274       -2.7451167813       -1.9964683218
 H         -0.0020226586       -2.9457974723       -1.3164404912
 H         -0.9194630968       -4.0268427366        1.4791630128
 H          0.3192017820       -2.8025421081        1.2340312991
 H         -1.0700002439       -2.4547764621        2.2654562657
 H         -2.7182062066       -4.8058568422        0.4791329501
 H         -5.0773679741       -5.3327356466        0.8041665379
 H         -6.7537094420       -3.5064603626        0.8622350345
 H         -6.0344197070       -1.1856545007        0.5851285328
 H         -4.4179243175        1.0277005841        2.3078643306
 H         -6.1827793305        2.7601100003        2.3129724461
 H         -7.3352961740        3.3505507854        0.2122327990
 H         -6.7282993794        2.2108334056       -1.8908596687
 H         -4.9637396429        0.4781933791       -1.8902433889
 H          3.4729596116        1.8651120629       -2.2638811051
 H          5.6875476920        0.7555226723       -2.2983846835
  69
       -107.49820170
 C          6.3895678174       -3.1868467136        2.5888504665
 C          5.9086017236       -2.2128347633        1.5617499741
 C          4.6840927776       -1.6576399561        1.5491151177
 C          4.3284543512       -0.7249042754        0.5168130202
 C          3.0932125440       -0.1116750868        0.4504644298
 C          2.8073841496        0.8171266814       -0.5623534480
 N          1.5645163838        1.4328910655       -0.6082689920
 C          1.3374623411        2.7989557927       -0.7937420156
 C          2.2439192327        3.8219533854       -0.9582409190
 C          1.7469060036        5.1202107600       -1.0984303169
 C          0.3808985887        5.3713628177       -1.0654869680
 C         -0.5354773247        4.3522068636       -0.8693343490
 C         -0.0612742397        3.0487069455       -0.7162193590
 C         -0.6862304671        1.7990410647       -0.4608775462
 C         -1.9925054129        1.3927509159       -0.2496511532
 C         -2.2726984539        0.0357981192       -0.0500972956
 C         -1.2390561661       -0.9478105329       -0.1137493781
 C          0.0727423351       -0.5319883843       -0.2864953117
 C          0.3646452546        0.8150119466       -0.4192446694
 C         -1.5388347368       -2.4268216151       -0.0229612779
 C         -1.1260344070       -3.0915120862       -1.3513111022
 C         -0.7308094534       -3.0343717563        1.1404541467
 C         -3.0060245399       -2.7016604532        0.2187092301
 C         -3.4547361006       -4.0094667875        0.3379968468
 C         -4.7827289506       -4.3092038114        0.5809596251
 C         -5.7012689060       -3.2796233787        0.7204933776
 C         -5.2875328108       -1.9725506165        0.6006051587
 C         -3.9450093657       -1.6655828957        0.3366758106
 N         -3.5637902154       -0.3450068347        0.1958034741
 C         -4.5580884136        0.6683448230        0.3425694384
 C         -4.7089558262        1.3066337572        1.5670913346
 C         -5.6722215460        2.2891784194        1.7120285545
 C         -6.4811459355        2.6340217901        0.6404941271
 C         -6.3269229603        1.9961818726       -0.5798003944
 C         -5.3663193691        1.0120279404       -0.7343746683
 C          3.7916967971        1.1106150767       -1.5326516057
 C          5.0101434687        0.4983279943       -1.4864934838
 C          5.3191924094       -0.4282490791       -0.4613782316
 C          6.6085076865       -1.0473059909       -0.4133889021
 O          7.5271195750       -0.8721882363       -1.2003655876
 O          6.8495017907       -1.9395091270        0.6286042901
 H          7.2427761520       -2.7693937446        3.1212011687
 H          6.7227629912       -4.1014952793        2.1018348553
 H          5.5998610476       -3.4171816544        3.2968035444
 H          3.9653344471       -1.9020432939        2.3140235200
 H          2.3575214828       -0.3036405134        1.2174367418
 H          3.3071144239        3.6406492780       -0.9634960271
 H          2.4395747352        5.9365786113       -1.2292272596
 H          0.0292828050        6.3855748454       -1.1844595280
 H         -1.5947394556        4.5551343978       -0.8309491058
 H         -2.7866728452        2.1211131259       -0.2430440184
 H          0.8708910904       -1.2536172025       -0.3410114999
 H         -0.0757536798       -2.9079745436       -1.5587673906
 H         -1.2857193802       -4.1653073101       -1.3165501967
 H         -1.7139232514       -2.6816488677       -2.1703016334
 H         -0.9200216771       -4.0998181424        1.2321402684
 H          0.3341194179       -2.8930390061        0.9823010241
 H         -1.0084879429       -2.5537514339        2.0766257871
 H         -2.7518545591       -4.8223346324        0.2401269075
 H         -5.0972335314       -5.3375255641        0.6672686114
 H         -6.7389612869       -3.4962799152        0.9217517718
 H         -6.0043568429       -1.1738134423        0.7108898407
 H         -4.0706431560        1.0292394661        2.3929111178
 H         -5.7902219863        2.7850851458        2.6632894088
 H         -7.2313785965        3.4008658540        0.7568835449
 H         -6.9543318351        2.2653523157       -1.4156816650
 H         -5.2347442803        0.5079437609       -1.6803419789
 H          3.5463932178        1.7862350863       -2.3376059344
 H          5.7674195012        0.6953066553       -2.2283853755
  69
       -107.49813009
 C          8.5126212677       -0.1668940492        1.8777807181
 C          7.2615329332       -0.4031788839        1.0881859251
 C          6.1493104303        0.3467579324        1.1901846146
 C          5.0017094112        0.0438928248        0.3833533473
 C          3.8281196567        0.7707582428        0.4416010891
 C          2.7276447597        0.4145520837       -0.3523244242
 N          1.5394161304        1.1270123737       -0.2705163193
 C          1.4237145919        2.5192190404       -0.2555433083
 C          2.4026879052        3.4792258182       -0.3784206224
 C          2.0103841530        4.8199956275       -0.3627303292
 C          0.6726703452        5.1728163322       -0.2314309857
 C         -0.3203784363        4.2133932663       -0.1353991485
 C          0.0470608278        2.8670140527       -0.1624659137
 C         -0.6810419197        1.6481268731       -0.1369101255
 C         -2.0248625851        1.3241175262       -0.0606902157
 C         -2.4135670551       -0.0202997356       -0.0203461403
 C         -1.4447545513       -1.0687503318       -0.0383992531
 C         -0.0997426272       -0.7398989682       -0.1228728482
 C          0.2902053817        0.5864181310       -0.2005692581
 C         -1.8414841330       -2.5250382979        0.0453020167
 C         -1.3095185608       -3.2557623752       -1.2033302578
 C         -1.2192545004       -3.1379186913        1.3152528988
 C         -3.3406353231       -2.7095690381        0.1084957226
 C         -3.8792431395       -3.9871270182        0.1696747745
 C         -5.2436319712       -4.2047484333        0.2282093150
 C         -6.1095874979       -3.1214432100        0.2263933355
 C         -5.6051256974       -1.8423305003        0.1696353382
 C         -4.2220572043       -1.6180170283        0.1122734321
 N         -3.7455132607       -0.3223744769        0.0598163888
 C         -4.6886371616        0.7479976030        0.1140699168
 C         -5.0951936073        1.2431319379        1.3468711414
 C         -6.0079300645        2.2819940253        1.3984102554
 C         -6.5123221414        2.8243377582        0.2269954188
 C         -6.1039292387        2.3280209053       -1.0006931825
 C         -5.1916080305        1.2890628387       -1.0625028830
 C          2.8341466859       -0.6854802191       -1.2334908215
 C          3.9914799571       -1.4033082900       -1.3080807001
 C          5.1037984399       -1.0692056188       -0.4979327195
 C          6.3048977011       -1.8427907860       -0.5716333748
 O          6.4973523044       -2.8178323835       -1.2841762900
 O          7.3625407177       -1.4570724812        0.2480829220
 H          9.2256151913       -0.9582097314        1.6645018407
 H          8.2941966131       -0.1552917372        2.9435449792
 H          8.9551748582        0.7909730015        1.6096739761
 H          6.1150373482        1.1777869837        1.8755047936
 H          3.7381484023        1.5871581886        1.1419209599
 H          3.4410889162        3.2147556548       -0.5025075512
 H          2.7608736559        5.5886860865       -0.4591824059
 H          0.4036729984        6.2186958794       -0.2153210416
 H         -1.3589468823        4.4933918275       -0.0473460521
 H         -2.7637204728        2.1077075740       -0.0270667428
 H          0.6497775525       -1.5132647657       -0.1122563604
 H         -1.7486766659       -2.8253667340       -2.1012909172
 H         -0.2298050203       -3.1629650137       -1.2693125721
 H         -1.5570503266       -4.3125691856       -1.1720503205
 H         -1.4626182424       -4.1932822434        1.3971931590
 H         -0.1381273807       -3.0375758935        1.2973179035
 H         -1.5975592232       -2.6269786034        2.1986262742
 H         -3.2194751904       -4.8408699583        0.1722545725
 H         -5.6283711745       -5.2115160900        0.2736613771
 H         -7.1767431856       -3.2749005384        0.2689622268
 H         -6.2808457874       -1.0012797559        0.1677709294
 H         -4.6922387272        0.8122197211        2.2512801258
 H         -6.3239664017        2.6677456979        2.3556772698
 H         -7.2243350914        3.6340379910        0.2713605729
 H         -6.4953579265        2.7492248364       -1.9141231612
 H         -4.8639826859        0.8939161116       -2.0126461296
 H          2.0030534924       -0.9126217406       -1.8841555050
 H          4.0981926088       -2.2334770545       -1.9879660664
  69
       -107.49808773
 C          6.3776234510       -3.1215760854        2.6503361850
 C          5.8977727092       -2.1741902980        1.5979788919
 C          4.6717995256       -1.6231221939        1.5673355881
 C          4.3185350410       -0.7145751608        0.5129476319
 C          3.0829318691       -0.1045961112        0.4288463833
 C          2.8012181495        0.8057724845       -0.6017333374
 N          1.5591200256        1.4215055811       -0.6607578641
 C          1.3315001131        2.7852050501       -0.8626771364
 C          2.2374022457        3.8051631464       -1.0473805362
 C          1.7402549068        5.1017465611       -1.2021744455
 C          0.3746084824        5.3542458880       -1.1631469915
 C         -0.5409875659        4.3385203858       -0.9465513722
 C         -0.0666776601        3.0367715909       -0.7791527409
 C         -0.6907450593        1.7908595593       -0.5033672180
 C         -1.9947484541        1.3874192924       -0.2732666047
 C         -2.2732588286        0.0324350849       -0.0584343161
 C         -1.2421153691       -0.9532038011       -0.1314811455
 C          0.0685335803       -0.5394734895       -0.3161717743
 C          0.3598478963        0.8066616137       -0.4590845180
 C         -1.5442097636       -2.4314432563       -0.0386156798
 C         -1.1468681399       -3.0940499996       -1.3727302999
 C         -0.7242874972       -3.0424911292        1.1144488058
 C         -3.0092376703       -2.7029870090        0.2193880017
 C         -3.4599101680       -4.0100581392        0.3391974574
 C         -4.7848819450       -4.3071315715        0.6007924213
 C         -5.6978441186       -3.2754855451        0.7601870562
 C         -5.2821150852       -1.9690190573        0.6401885807
 C         -3.9432507502       -1.6646831822        0.3556842215
 N         -3.5604348700       -0.3447178608        0.2127215693
 C         -4.5432493420        0.6732865479        0.3983731464
 C         -5.3879895223        1.0285308456       -0.6464180760
 C         -6.3347451916        2.0190106658       -0.4514296182
 C         -6.4395018580        2.6513368185        0.7769118078
 C         -5.5947118669        2.2944125269        1.8165259423
 C         -4.6447998688        1.3059647528        1.6309043553
 C          3.7894523641        1.0816233857       -1.5732473123
 C          5.0076167252        0.4701816574       -1.5108092525
 C          5.3130694686       -0.4362838095       -0.4668360983
 C          6.6026427856       -1.0529573148       -0.4011340090
 O          7.5246265432       -0.8927039236       -1.1872957980
 O          6.8407732450       -1.9222306199        0.6609400496
 H          5.5942051544       -3.3152806529        3.3762763697
 H          7.2451057293       -2.7000024363        3.1558017605
 H          6.6891636672       -4.0579563506        2.1904021428
 H          3.9505381746       -1.8514437891        2.3349384655
 H          2.3440748839       -0.2823558329        1.1962313470
 H          3.3003573629        3.6226871338       -1.0584030050
 H          2.4324540148        5.9155726712       -1.3501926394
 H          0.0225589934        6.3666517569       -1.2955490071
 H         -1.5998468385        4.5429440139       -0.9040832454
 H         -2.7888138711        2.1160013616       -0.2641563642
 H          0.8663562991       -1.2614443860       -0.3711936033
 H         -1.3074044962       -4.1677029075       -1.3384421670
 H         -1.7434694047       -2.6817604208       -2.1841247994
 H         -0.0987735274       -2.9111951975       -1.5914834457
 H         -0.9185735942       -4.1067772255        1.2089460421
 H          0.3393161131       -2.9073057779        0.9425987202
 H         -0.9874149068       -2.5600587027        2.0538470609
 H         -2.7608123045       -4.8243025269        0.2267654465
 H         -5.1013444764       -5.3349246453        0.6855892539
 H         -6.7328160812       -3.4901761993        0.9768861506
 H         -5.9944866782       -1.1687848458        0.7669340603
 H         -5.2951507100        0.5289127764       -1.5993283202
 H         -6.9904415499        2.2972891481       -1.2623554631
 H         -7.1788968798        3.4233248910        0.9246721095
 H         -5.6734112418        2.7864609111        2.7738226417
 H         -3.9779008619        1.0200961338        2.4309107976
 H          3.5478202960        1.7433276541       -2.3908329479
 H          5.7679110649        0.6533465885       -2.2531351939
  69
       -107.49652521
 C          8.6347277366       -0.1448064050        1.5287872204
 C          7.3296020230       -0.3979488118        0.8451176675
 C          6.2338449633        0.3694399950        0.9808419747
 C          5.0314888286        0.0388135646        0.2687178475
 C          3.8713398802        0.7822126634        0.3662102237
 C          2.7184539223        0.4023227469       -0.3383315242
 N          1.5431926595        1.1291514835       -0.2200802153
 C          1.4321018125        2.5218921348       -0.2563652608
 C          2.4066973971        3.4734427010       -0.4559707107
 C          2.0175110672        4.8151041324       -0.4798956185
 C          0.6867791721        5.1777743694       -0.3123141670
 C         -0.3034567086        4.2260360035       -0.1401551502
 C          0.0606104002        2.8787841214       -0.1258109287
 C         -0.6700026214        1.6648551455       -0.0281965204
 C         -2.0136306279        1.3465262310        0.0712857686
 C         -2.3995485242        0.0039664215        0.1329176576
 C         -1.4278854453       -1.0465276188        0.2087081054
 C         -0.0870587007       -0.7235112336        0.0939645620
 C          0.2956098222        0.5981735059       -0.0803102126
 C         -1.8833479428       -2.4386401991        0.5895379892
 C         -0.8935693563       -3.5092021951        0.1196938562
 C         -1.9630860326       -2.4880925457        2.1342051232
 C         -3.2848845772       -2.6956789072        0.0769419707
 C         -3.7708741284       -3.9719457728       -0.1581585867
 C         -5.0872578132       -4.1952874689       -0.5269086465
 C         -5.9582290581       -3.1255537821       -0.6529956763
 C         -5.5050088634       -1.8452328910       -0.4241197178
 C         -4.1715096604       -1.6152256437       -0.0650465751
 N         -3.7298719991       -0.3167186979        0.1202260398
 C         -4.7029121415        0.7243473196        0.1645755910
 C         -5.3664710453        0.9771405813        1.3578576206
 C         -6.3145269510        1.9838553470        1.4148167319
 C         -6.6004480695        2.7351316894        0.2860364604
 C         -5.9387948157        2.4788749462       -0.9045510584
 C         -4.9899786474        1.4741750802       -0.9709659489
 C          2.7588881854       -0.7417567341       -1.1686263240
 C          3.9012078897       -1.4779946520       -1.2792775813
 C          5.0662879445       -1.1187197715       -0.5590262627
 C          6.2520405843       -1.9114630175       -0.6685997497
 O          6.3867459354       -2.9250430257       -1.3392960209
 O          7.3643509814       -1.4992830789        0.0595570996
 H          9.4189705550       -0.0089778869        0.7855123237
 H          8.9050805401       -1.0063998424        2.1373928804
 H          8.5724058282        0.7386680487        2.1563655956
 H          6.2502976992        1.2373903489        1.6191073950
 H          3.8348437264        1.6316577225        1.0310677099
 H          3.4391722218        3.2023724892       -0.6104038198
 H          2.7653036314        5.5764199360       -0.6368302133
 H          0.4199766408        6.2242027463       -0.3294060117
 H         -1.3375697789        4.5127319182       -0.0252636338
 H         -2.7522344128        2.1310335014        0.0767545701
 H          0.6736423265       -1.4810677984        0.1578416504
 H         -1.2126235602       -4.4966179219        0.4372599085
 H         -0.8025749470       -3.4982505694       -0.9637917754
 H          0.0854586529       -3.3439853012        0.5580391056
 H         -2.3036205914       -3.4676431381        2.4623432365
 H         -0.9823726286       -2.2924135003        2.5615166428
 H         -2.6571595222       -1.7374561177        2.5066142726
 H         -3.1212590274       -4.8247287931       -0.0518365019
 H         -5.4297973099       -5.2021263611       -0.7079867241
 H         -6.9875575155       -3.2876213250       -0.9330546296
 H         -6.1796043235       -1.0101631388       -0.5327298682
 H         -5.1353057619        0.3847831623        2.2309382470
 H         -6.8279970465        2.1819472707        2.3431731721
 H         -7.3390481888        3.5203009178        0.3341360146
 H         -6.1613339643        3.0611518344       -1.7857284145
 H         -4.4691264359        1.2627986902       -1.8933451911
 H          1.8858783162       -0.9912491972       -1.7526028859
 H          3.9547080527       -2.3427376757       -1.9211734596
