  69
  -107.076542080600       0.186268331101503      !
 C          6.4368007813       -3.4408647494        2.1006572982
 C          5.9461383004       -2.2923648759        1.2789752097
 C          4.7016013309       -1.7869216689        1.3379495116
 C          4.3378835118       -0.6736097334        0.5070656188
 C          3.0818119240       -0.1006907472        0.5250238172
 C          2.7874487655        1.0070457890       -0.2851864929
 N          1.5231046282        1.5779827067       -0.2469865512
 C          1.2477976093        2.9447529712       -0.1562577853
 C          2.1175897403        4.0088354429       -0.0760193750
 C          1.5740575695        5.2911107907        0.0357399185
 C          0.1988635681        5.4851750052        0.0720636994
 C         -0.6818480436        4.4180002642        0.0232307935
 C         -0.1612461361        3.1271861437       -0.0777511974
 C         -0.7434430202        1.8319283150       -0.1058312021
 C         -2.0380473671        1.3482388139       -0.0278147953
 C         -2.2701498606       -0.0291460786       -0.1204974004
 C         -1.1973904543       -0.9441005458       -0.3485314470
 C          0.1013105789       -0.4588392504       -0.3867626674
 C          0.3436823748        0.8954268202       -0.2303691876
 C         -1.4413117960       -2.4190797331       -0.5733029482
 C         -0.9667841176       -2.7818146071       -1.9945621377
 C         -0.6420385799       -3.2265653570        0.4681800215
 C         -2.9026295513       -2.7857610624       -0.4441435099
 C         -3.3028017414       -4.1040605607       -0.6111095518
 C         -4.6241401305       -4.4907963455       -0.4809615633
 C         -5.5857950639       -3.5427504604       -0.1652877224
 C         -5.2205133938       -2.2261908155       -0.0002727226
 C         -3.8843740485       -1.8275858750       -0.1489429425
 N         -3.5515308074       -0.4945608402       -0.0028134725
 C         -4.5884181696        0.4336402135        0.3139800554
 C         -4.7974515908        0.8005393689        1.6373536431
 C         -5.8020842684        1.7000057548        1.9471197833
 C         -6.5944556121        2.2316022750        0.9416276448
 C         -6.3822030616        1.8643809012       -0.3774025001
 C         -5.3799042095        0.9652397607       -0.6970173440
 C          3.7855307645        1.5263206342       -1.1399796254
 C          5.0253387002        0.9579341111       -1.1780765814
 C          5.3424741779       -0.1494003775       -0.3545761137
 C          6.6532855791       -0.7224625604       -0.3898113862
 O          7.5853951742       -0.3588898522       -1.0918319854
 O          6.9006369314       -1.8018891298        0.4548838233
 H          7.2581878770       -3.1143672018        2.7365435334
 H          6.8187251158       -4.2240722276        1.4483497963
 H          5.6377641277       -3.8379264059        2.7185334952
 H          3.9724343692       -2.2071560143        2.0111137041
 H          2.3336195100       -0.4706222274        1.2103685492
 H          3.1868247984        3.8674503082       -0.0814456275
 H          2.2374892874        6.1391609176        0.0991719178
 H         -0.1888778229        6.4900518447        0.1513941324
 H         -1.7489035944        4.5738330051        0.0656322244
 H         -2.8600457154        2.0331734114        0.1004052742
 H          0.9283251020       -1.1271835739       -0.5603266195
 H          0.0807482502       -2.5251391233       -2.1234317677
 H         -1.0851339907       -3.8443619698       -2.1862133930
 H         -1.5477913808       -2.2314387614       -2.7320332423
 H         -0.7917580472       -4.2936484339        0.3328973543
 H          0.4204386093       -3.0208472545        0.3793929611
 H         -0.9637124839       -2.9585859841        1.4727851844
 H         -2.5661893653       -4.8558211139       -0.8490872774
 H         -4.9003184253       -5.5245701253       -0.6182398259
 H         -6.6192863597       -3.8301256168       -0.0488328622
 H         -5.9708361195       -1.4912655328        0.2464682625
 H         -4.1714572706        0.3799602927        2.4104081843
 H         -5.9652718552        1.9850578502        2.9751567051
 H         -7.3770645957        2.9329836140        1.1866434740
 H         -6.9967098625        2.2793483710       -1.1616062446
 H         -5.2029808484        0.6715440904       -1.7210817923
 H          3.5359174464        2.3449353753       -1.7973614108
 H          5.7942126300        1.3283064190       -1.8371125400
  69
  -107.076536015900       0.185076756712648      !
 C          8.5109913654       -0.2924929445        1.9773699168
 C          7.2699392729       -0.3845347990        1.1490400798
 C          6.1305262854        0.2834746127        1.4012513365
 C          4.9961984353        0.1234008346        0.5355321398
 C          3.7960463506        0.7768305049        0.7390337604
 C          2.7131546751        0.5667829525       -0.1277790497
 N          1.4989615338        1.2036479867        0.0867530059
 C          1.3269850513        2.5561063083        0.3924177556
 C          2.2692669411        3.5521513599        0.5153284967
 C          1.8224801132        4.8447059995        0.8007238265
 C          0.4681637896        5.1170883562        0.9509945830
 C         -0.4875131766        4.1269298175        0.8017892811
 C         -0.0649407781        2.8303633282        0.5044950756
 C         -0.7440845134        1.6106600971        0.2435608861
 C         -2.0754820682        1.2356618813        0.1860789027
 C         -2.4098070182       -0.0989434374       -0.0735009636
 C         -1.3985217896       -1.0915508756       -0.2483559036
 C         -0.0662309558       -0.7080594771       -0.2083206975
 C          0.2709600465        0.6189584717       -0.0015570814
 C         -1.7378041901       -2.5493648025       -0.4601399293
 C         -1.1261973599       -3.0130348813       -1.7968680387
 C         -1.1423165298       -3.3697688064        0.7007393246
 C         -3.2293894225       -2.7913593975       -0.5067590489
 C         -3.7165909766       -4.0753701542       -0.7060090661
 C         -5.0719311985       -4.3432671225       -0.7677835731
 C         -5.9808386882       -3.3045825646       -0.6331096216
 C         -5.5279424912       -2.0209173602       -0.4302839271
 C         -4.1545921376       -1.7472122156       -0.3569267230
 N         -3.7304335931       -0.4507007523       -0.1382862017
 C         -4.7190985234        0.5637868569        0.0382104951
 C         -5.2618416522        0.7856266674        1.2979169478
 C         -6.2198099540        1.7701586482        1.4651840487
 C         -6.6342145503        2.5294697479        0.3824618968
 C         -6.0898775065        2.3057588103       -0.8723485261
 C         -5.1313249749        1.3233797205       -1.0494345181
 C          2.8644012871       -0.3078863239       -1.2282430094
 C          4.0476899071       -0.9500058380       -1.4452145333
 C          5.1434727635       -0.7633636478       -0.5681196684
 C          6.3734292547       -1.4573239312       -0.7973972574
 O          6.6038519883       -2.2419361106       -1.7065610797
 O          7.4126289577       -1.2265555801        0.0990218561
 H          8.7598570923       -1.2739508660        2.3782874092
 H          8.3744053660        0.4088687719        2.7943874225
 H          9.3450878945        0.0288370672        1.3558182611
 H          6.0609717449        0.9436755469        2.2499963314
 H          3.6731450942        1.4143548317        1.6013384877
 H          3.3209352153        3.3554386375        0.3782823797
 H          2.5437656033        5.6405230993        0.8998858562
 H          0.1563430862        6.1259696175        1.1777371394
 H         -1.5388714640        4.3473786128        0.9059743224
 H         -2.8468129328        1.9709306721        0.3457909952
 H          0.7142149676       -1.4417409326       -0.3212329414
 H         -1.3365538577       -4.0627688934       -1.9783795644
 H         -1.5419244589       -2.4316781335       -2.6175887648
 H         -0.0487193775       -2.8798626109       -1.7913366998
 H         -1.3423992384       -4.4293966985        0.5716526399
 H         -0.0667615216       -3.2299421464        0.7540636077
 H         -1.5779832550       -3.0487169812        1.6449049472
 H         -3.0227923931       -4.8941951846       -0.8172179187
 H         -5.4159236188       -5.3537753108       -0.9233531746
 H         -7.0413850812       -3.4959051627       -0.6862493854
 H         -6.2375069461       -1.2147034392       -0.3277258664
 H         -4.9287183264        0.1872178415        2.1329685940
 H         -6.6413842409        1.9441584911        2.4433801731
 H         -7.3816080616        3.2962216310        0.5166613181
 H         -6.4111089312        2.8964323932       -1.7165862862
 H         -4.6978275134        1.1395755586       -2.0213427296
 H          2.0448894759       -0.4150890110       -1.9229452383
 H          4.1879222628       -1.6048356163       -2.2904024042
  69
  -107.076449955600       0.168966771062181      !
 C          6.5637046318       -3.4861311990        1.8639178372
 C          6.0296974906       -2.3172085609        1.0998974306
 C          4.7916962011       -1.8119484669        1.2414283657
 C          4.3822529557       -0.6817728657        0.4556784446
 C          3.1273007772       -0.1132457341        0.5512110333
 C          2.7889956352        1.0090504305       -0.2204680670
 N          1.5232581665        1.5702146526       -0.1242345683
 C          1.2481269292        2.9354744133       -0.0159822515
 C          2.1194653197        3.9973802355        0.0772969482
 C          1.5774781137        5.2783103864        0.2085388867
 C          0.2022308369        5.4729230012        0.2493914346
 C         -0.6796725704        4.4076004377        0.1861672369
 C         -0.1604639041        3.1175980215        0.0675561173
 C         -0.7424502223        1.8227500096        0.0243648529
 C         -2.0397866005        1.3422672670        0.0718065389
 C         -2.2746987576       -0.0336900436       -0.0350793577
 C         -1.1977514974       -0.9538451107       -0.2136196839
 C          0.1017998178       -0.4692758332       -0.2449179580
 C          0.3444616255        0.8864234010       -0.1025038994
 C         -1.4346359885       -2.4371182463       -0.3867038314
 C         -0.9114391795       -2.8640810346       -1.7724061273
 C         -0.6717933308       -3.1946814150        0.7177627441
 C         -2.8999282249       -2.7995340629       -0.2967493757
 C         -3.2943183068       -4.1246882261       -0.4161353308
 C         -4.6222579580       -4.5035755818       -0.3402307244
 C         -5.5979564478       -3.5390590916       -0.1374010301
 C         -5.2379819053       -2.2160977609       -0.0186781837
 C         -3.8928517442       -1.8279140255       -0.0998157678
 N         -3.5632031236       -0.4913025392        0.0151529067
 C         -4.6194038071        0.4546983307        0.1827597019
 C         -5.0117338047        0.8331356507        1.4606441544
 C         -6.0343482425        1.7524332708        1.6167930520
 C         -6.6623781253        2.2909661328        0.5044844390
 C         -6.2677522779        1.9111710933       -0.7685979632
 C         -5.2458626720        0.9927474614       -0.9345372323
 C          3.7430694279        1.5534330697       -1.1096784280
 C          4.9800642561        0.9900582358       -1.2245465058
 C          5.3391508873       -0.1374555813       -0.4468717141
 C          6.6442555942       -0.7109064356       -0.5702456628
 O          7.5363950121       -0.3304303978       -1.3141898893
 O          6.9359246682       -1.8113889033        0.2318925922
 H          7.4664142243       -3.1940987626        2.3979240096
 H          6.8344548828       -4.2848814772        1.1749817325
 H          5.8251177253       -3.8511431799        2.5705713054
 H          4.1017009670       -2.2467343694        1.9460379141
 H          2.4172060961       -0.4990605372        1.2676136703
 H          3.1885403780        3.8542416669        0.0666066764
 H          2.2416200579        6.1248690343        0.2831390508
 H         -0.1844015123        6.4769430714        0.3435589182
 H         -1.7464862975        4.5642583415        0.2325170215
 H         -2.8618914633        2.0297739962        0.1839343585
 H          0.9291889554       -1.1414139632       -0.3997418881
 H         -1.0334545500       -3.9329629658       -1.9224304985
 H         -1.4598260721       -2.3413429500       -2.5536669034
 H          0.1425758421       -2.6227043912       -1.8739893840
 H         -0.8065125777       -4.2678195505        0.6197191107
 H          0.3914668874       -2.9808740113        0.6634071881
 H         -1.0362472404       -2.8896481239        1.6968339546
 H         -2.5481106207       -4.8879733467       -0.5738659948
 H         -4.8935975481       -5.5430414778       -0.4379646714
 H         -6.6380296443       -3.8186859489       -0.0741944804
 H         -5.9990682648       -1.4677748622        0.1385283503
 H         -4.5120687951        0.4073427404        2.3185703816
 H         -6.3400270231        2.0475408436        2.6089160279
 H         -7.4585423489        3.0084674701        0.6301371256
 H         -6.7545914670        2.3306834220       -1.6360183594
 H         -4.9270691503        0.6891086824       -1.9208120760
 H          3.4587213693        2.3874108025       -1.7328488909
 H          5.7134130765        1.3772208179       -1.9135723782
  69
  -107.076339166800       0.150274848083568      !
 C          8.4086709415       -0.2891715016        2.1982194899
 C          7.2070839954       -0.3841586753        1.3140004068
 C          6.0644133778        0.2994305222        1.5007302787
 C          4.9699604174        0.1339705493        0.5861505499
 C          3.7676864014        0.8001506265        0.7239545953
 C          2.7206121158        0.5784782031       -0.1829165774
 N          1.5006886616        1.2202868586       -0.0189124129
 C          1.3271666141        2.5757983366        0.2704178621
 C          2.2695481629        3.5731996878        0.3812447257
 C          1.8220144560        4.8696778309        0.6470983449
 C          0.4672925100        5.1436413676        0.7914359881
 C         -0.4880957189        4.1511580762        0.6561849494
 C         -0.0648120595        2.8506890307        0.3771011800
 C         -0.7421901375        1.6269368891        0.1313712050
 C         -2.0730436377        1.2468525388        0.1002458871
 C         -2.4071342060       -0.0909380720       -0.1426393435
 C         -1.3968930821       -1.0754377941       -0.3609027229
 C         -0.0644294583       -0.6902978074       -0.3287672754
 C          0.2733056036        0.6345919522       -0.1102385388
 C         -1.7367515742       -2.5258354483       -0.6178723207
 C         -1.1495284357       -2.9343320137       -1.9832845546
 C         -1.1174852840       -3.3906301716        0.4973515332
 C         -3.2284281107       -2.7714296621       -0.6392910298
 C         -3.7169850148       -4.0464824073       -0.8870530171
 C         -5.0722885410       -4.3210062492       -0.9051371111
 C         -5.9798561401       -3.3004214190       -0.6645027176
 C         -5.5255426340       -2.0259763529       -0.4127019507
 C         -4.1522506784       -1.7428170613       -0.3999942053
 N         -3.7265536454       -0.4528703355       -0.1488597050
 C         -4.7090362680        0.5372947084        0.1554566536
 C         -5.0566420691        0.7705638235        1.4801213829
 C         -6.0073157826        1.7307820466        1.7784805625
 C         -6.6088031052        2.4541077524        0.7607023177
 C         -6.2591674509        2.2188551180       -0.5594716667
 C         -5.3086900760        1.2611205848       -0.8676399468
 C          2.9127854293       -0.3159398039       -1.2603687700
 C          4.1000728375       -0.9695864360       -1.4138605543
 C          5.1574671892       -0.7756304218       -0.4924966259
 C          6.3892812752       -1.4864218548       -0.6506935021
 O          6.6517502094       -2.2935641854       -1.5309948982
 O          7.3897255802       -1.2452151519        0.2856438945
 H          8.6540628805       -1.2741764602        2.5923107891
 H          8.2247905891        0.3956857844        3.0199347925
 H          9.2651401941        0.0561272991        1.6211227694
 H          5.9612289167        0.9740619342        2.3345573585
 H          3.6124491814        1.4559813779        1.5671590710
 H          3.3215178622        3.3735236099        0.2500922585
 H          2.5428345863        5.6671995470        0.7352983437
 H          0.1549256236        6.1555547630        1.0034251134
 H         -1.5395672128        4.3727645953        0.7564931749
 H         -2.8438443133        1.9807662791        0.2682983044
 H          0.7149276546       -1.4222935662       -0.4577146564
 H         -1.3611404126       -3.9763413566       -2.2035739961
 H         -1.5805663301       -2.3207712500       -2.7720438106
 H         -0.0723137455       -2.7987604687       -1.9910843985
 H         -1.3214421318       -4.4443768434        0.3307536096
 H         -0.0407968667       -3.2533919506        0.5338896380
 H         -1.5329837146       -3.1072011871        1.4625329484
 H         -3.0242290693       -4.8533526201       -1.0694140390
 H         -5.4173110060       -5.3237979849       -1.1027536135
 H         -7.0403879284       -3.4990295201       -0.6723369838
 H         -6.2338747809       -1.2345412442       -0.2232400899
 H         -4.5785589914        0.2005057997        2.2630157047
 H         -6.2771866426        1.9133797241        2.8074155902
 H         -7.3496539412        3.2024213814        0.9967835311
 H         -6.7254706903        2.7826233234       -1.3529755924
 H         -5.0252495267        1.0694042866       -1.8919629704
 H          2.1238765374       -0.4298027207       -1.9886215850
 H          4.2719763898       -1.6411224784       -2.2399126317
  69
  -107.076324429800       0.147949547536433      !
 C          8.5787899805       -0.2158445033        1.8382447985
 C          7.3095885602       -0.3436990281        1.0587943129
 C          6.1712959105        0.3156799586        1.3376765351
 C          5.0111029768        0.1283995409        0.5126833366
 C          3.8129177929        0.7774356482        0.7410821481
 C          2.7075029843        0.5492230688       -0.0920627384
 N          1.4979219624        1.1888937064        0.1381999507
 C          1.3282820662        2.5468704065        0.4213426017
 C          2.2713423498        3.5443301378        0.5252445869
 C          1.8265074309        4.8417472657        0.7909668382
 C          0.4728764802        5.1179164748        0.9397268765
 C         -0.4839444444        4.1264967820        0.8075750776
 C         -0.0633551715        2.8247773872        0.5307569411
 C         -0.7449380613        1.6024921844        0.2889082560
 C         -2.0769167816        1.2315339778        0.2191380076
 C         -2.4123684172       -0.1042331354       -0.0327984024
 C         -1.4028258291       -1.1048516615       -0.1696769671
 C         -0.0700864117       -0.7260008189       -0.1158024922
 C          0.2688199351        0.6045511969        0.0644720354
 C         -1.7458628148       -2.5660736982       -0.3493064593
 C         -1.0416396005       -3.0908075859       -1.6157536958
 C         -1.2499735840       -3.3453536374        0.8852038813
 C         -3.2342359848       -2.7927235118       -0.4874463391
 C         -3.7234751131       -4.0731120736       -0.7044388944
 C         -5.0757199490       -4.3266062232       -0.8445671802
 C         -5.9796601710       -3.2777503092       -0.7664525347
 C         -5.5258645114       -1.9991557959       -0.5357931703
 C         -4.1559399028       -1.7396789084       -0.3860895055
 N         -3.7322423310       -0.4485699349       -0.1363984875
 C         -4.7207906130        0.5699095357        0.0169160353
 C         -5.2759491504        0.8059745078        1.2683199603
 C         -6.2345541844        1.7933876494        1.4150500458
 C         -6.6376428978        2.5405902314        0.3199544183
 C         -6.0808593014        2.3025533472       -0.9268616693
 C         -5.1211354909        1.3179904374       -1.0832375757
 C          2.8327098438       -0.3436050009       -1.1816386824
 C          4.0120003418       -0.9849865091       -1.4203159047
 C          5.1318122604       -0.7769015744       -0.5790113579
 C          6.3590616773       -1.4667367742       -0.8329046783
 O          6.5669346993       -2.2690998819       -1.7319750003
 O          7.4257818529       -1.2061587219        0.0225135128
 H          9.3779735442        0.1309328895        1.1849391577
 H          8.8725165478       -1.1895331416        2.2271893590
 H          8.4537280480        0.4813521184        2.6605895575
 H          6.1229708612        0.9921298386        2.1749796013
 H          3.7115938530        1.4272939640        1.5968510748
 H          3.3224355932        3.3454724775        0.3876010216
 H          2.5490578439        5.6380557172        0.8760043344
 H          0.1625298284        6.1303778424        1.1520647332
 H         -1.5348634627        4.3497158024        0.9101720267
 H         -2.8479272376        1.9722792111        0.3533689777
 H          0.7091524104       -1.4646986776       -0.1996682925
 H         -1.3156587074       -4.1217131416       -1.8177201757
 H         -1.3229722244       -2.4859625040       -2.4755521212
 H          0.0369382239       -3.0468808508       -1.5006170822
 H         -1.3990051772       -4.4134424631        0.7547632209
 H         -0.1916252050       -3.1631814438        1.0487800600
 H         -1.7945772109       -3.0261130223        1.7718143380
 H         -3.0337827125       -4.9006560009       -0.7659199163
 H         -5.4213298199       -5.3340254606       -1.0158159969
 H         -7.0371724287       -3.4580053254       -0.8821350061
 H         -6.2316520178       -1.1857801607       -0.4702095523
 H         -4.9512699758        0.2174930402        2.1136478170
 H         -6.6642630293        1.9796753834        2.3874083972
 H         -7.3852611434        3.3097779078        0.4380212696
 H         -6.3942074205        2.8830965212       -1.7810553167
 H         -4.6798356584        1.1209643990       -2.0490482269
 H          1.9952513362       -0.4656001581       -1.8519114192
 H          4.1310811114       -1.6539970820       -2.2576083643
  69
  -107.076173670900       0.126133267975320      !
 C          6.4085076166       -3.4134317898        2.1730424702
 C          5.9253375507       -2.2774944148        1.3295702393
 C          4.6800113512       -1.7722651450        1.3687027864
 C          4.3248734302       -0.6697480485        0.5199857673
 C          3.0692999188       -0.0958167385        0.5191682168
 C          2.7847825602        1.0056399837       -0.3030672254
 N          1.5216887314        1.5795792061       -0.2784371787
 C          1.2465516645        2.9467688349       -0.1927017007
 C          2.1165869276        4.0110167318       -0.1185154964
 C          1.5734349195        5.2939294814       -0.0119042631
 C          0.1982697052        5.4882800240        0.0257482092
 C         -0.6826388023        4.4209850134       -0.0167916971
 C         -0.1624932036        3.1295857585       -0.1131173641
 C         -0.7449892762        1.8342052267       -0.1355264505
 C         -2.0386081748        1.3491745741       -0.0493254866
 C         -2.2697005705       -0.0284808886       -0.1407851729
 C         -1.1983193049       -0.9417592828       -0.3819105457
 C          0.1000694506       -0.4562519794       -0.4213233019
 C          0.3419932965        0.8976881988       -0.2610527628
 C         -1.4441433242       -2.4142019820       -0.6197339127
 C         -0.9781254615       -2.7608984220       -2.0478161274
 C         -0.6379697373       -3.2326780252        0.4075882608
 C         -2.9047229160       -2.7816602115       -0.4844919725
 C         -3.3066103136       -4.0975960160       -0.6653079655
 C         -4.6264158273       -4.4862645002       -0.5264376143
 C         -5.5843732852       -3.5428971463       -0.1864734276
 C         -5.2173534919       -2.2286286211       -0.0073654650
 C         -3.8832275334       -1.8274938841       -0.1664868419
 N         -3.5488783063       -0.4961578369       -0.0082158986
 C         -4.5768961776        0.4260060481        0.3516685217
 C         -5.4011452478        0.9707038216       -0.6257213634
 C         -6.3923552599        1.8651461771       -0.2611769148
 C         -6.5615708779        2.2144267438        1.0688614838
 C         -5.7370390295        1.6692057676        2.0408408795
 C         -4.7430583275        0.7748305069        1.6859994545
 C          3.7919189782        1.5157055285       -1.1528021025
 C          5.0308299526        0.9444539767       -1.1741368444
 C          5.3384700479       -0.1553181376       -0.3370467439
 C          6.6488000964       -0.7300945011       -0.3534666200
 O          7.5884268261       -0.3748889542       -1.0496822372
 O          6.8871443062       -1.7996183335        0.5065649551
 H          5.6105295374       -3.7838844946        2.8088495301
 H          7.2418485884       -3.0830730927        2.7912263011
 H          6.7716820556       -4.2183362759        1.5361455197
 H          3.9441501005       -2.1834882463        2.0402432880
 H          2.3138599535       -0.4582067896        1.2006164946
 H          3.1857701919        3.8692957191       -0.1259231338
 H          2.2370765012        6.1422533885        0.0454396814
 H         -0.1893785182        6.4936515555        0.0991765301
 H         -1.7496145770        4.5774862953        0.0261683496
 H         -2.8609351326        2.0329154253        0.0838343322
 H          0.9273589806       -1.1235328751       -0.5977282549
 H         -1.0968051931       -3.8213164508       -2.2505644687
 H         -1.5643217437       -2.2028483078       -2.7752986280
 H          0.0683378240       -2.5017921563       -2.1803667568
 H         -0.7926602327       -4.2979997683        0.2642629518
 H          0.4243749640       -3.0297022821        0.3112308307
 H         -0.9501080981       -2.9725372595        1.4172132344
 H         -2.5724002198       -4.8457317716       -0.9214351452
 H         -4.9042645440       -5.5177880430       -0.6762939140
 H         -6.6163976427       -3.8322134536       -0.0622182961
 H         -5.9647214911       -1.4976740387        0.2592034163
 H         -5.2579548086        0.6912519391       -1.6590065791
 H         -7.0322487693        2.2904084296       -1.0192439746
 H         -7.3354767555        2.9124226708        1.3488169582
 H         -5.8659479195        1.9407772336        3.0773511841
 H         -4.0913242011        0.3448700824        2.4322314040
 H          3.5504958121        2.3298762362       -1.8187794146
 H          5.8066598170        1.3074088409       -1.8291150625
  69
  -107.074971063400       3.533047752834742E-002 !
 C          8.4575156142       -0.2717135729        2.1012463603
 C          7.2391256718       -0.3791022224        1.2360838859
 C          6.0953558252        0.2952308468        1.4526786844
 C          4.9834737386        0.1298458840        0.5604578004
 C          3.7805389342        0.7887425445        0.7273173049
 C          2.7175093678        0.5701027607       -0.1617329374
 N          1.4998813267        1.2094986287        0.0246386905
 C          1.3281117133        2.5630361230        0.3251081420
 C          2.2708393078        3.5596717920        0.4394874319
 C          1.8248362854        4.8535440146        0.7201795699
 C          0.4709492073        5.1261180285        0.8747544246
 C         -0.4851211433        4.1352039896        0.7337598579
 C         -0.0634150345        2.8374009954        0.4399018047
 C         -0.7425135555        1.6165412758        0.1853445229
 C         -2.0738592273        1.2390096552        0.1449206453
 C         -2.4093377333       -0.0962741974       -0.1093386480
 C         -1.3991575777       -1.0847056767       -0.3111095555
 C         -0.0665887541       -0.7006739070       -0.2777027646
 C          0.2718860426        0.6247851222       -0.0636784593
 C         -1.7393627585       -2.5386636766       -0.5465696863
 C         -1.1443495710       -2.9735012306       -1.9004172450
 C         -1.1282886331       -3.3827450713        0.5890721356
 C         -3.2310859766       -2.7823546443       -0.5761649948
 C         -3.7195437578       -4.0616750022       -0.8014294320
 C         -5.0752096080       -4.3322225779       -0.8377112262
 C         -5.9835039779       -3.3021293771       -0.6444709248
 C         -5.5293358986       -2.0233571419       -0.4157671238
 C         -4.1553129694       -1.7458907336       -0.3762859773
 N         -3.7298106188       -0.4527987244       -0.1409217958
 C         -4.7162081952        0.5503336809        0.1017049256
 C         -5.1760833269        0.7624481385        1.3954465276
 C         -6.1307918823        1.7363716635        1.6299312795
 C         -6.6240552630        2.4948258178        0.5800744587
 C         -6.1624392836        2.2805464875       -0.7088512721
 C         -5.2078587388        1.3086660815       -0.9534095472
 C          2.8922404841       -0.3168208036       -1.2483347850
 C          4.0790260070       -0.9640069356       -1.4298597781
 C          5.1543240985       -0.7699691207       -0.5291377936
 C          6.3870337998       -1.4703670885       -0.7198593490
 O          6.6379622248       -2.2675810311       -1.6125783151
 O          7.4053890615       -1.2297194092        0.1990331496
 H          9.2072526301       -0.9765288889        1.7531680636
 H          8.2095281883       -0.4908634804        3.1376695163
 H          8.8685441585        0.7353089903        2.0542858945
 H          6.0089429145        0.9626973111        2.2943846925
 H          3.6386668422        1.4369092467        1.5786714352
 H          3.3220283901        3.3619210077        0.2997919300
 H          2.5462894819        5.6500416857        0.8124794296
 H          0.1599128475        6.1358419821        1.0988014073
 H         -1.5361072182        4.3556703554        0.8414622762
 H         -2.8441714404        1.9730325559        0.3148746240
 H          0.7127448222       -1.4336130556       -0.4019092365
 H         -1.5755020769       -2.3795328557       -2.7039984054
 H         -0.0678147681       -2.8328970093       -1.9074611720
 H         -1.3500986753       -4.0210979931       -2.0986579403
 H         -1.3313279094       -4.4394009978        0.4407965492
 H         -0.0519677577       -3.2447815235        0.6306127510
 H         -1.5509539736       -3.0810648787        1.5455583239
 H         -3.0264137565       -4.8744809973       -0.9533985913
 H         -5.4203995072       -5.3384736319       -1.0165240020
 H         -7.0444199261       -3.4966909252       -0.6725008897
 H         -6.2379102354       -1.2236378310       -0.2663050759
 H         -4.7812481315        0.1654141268        2.2039446057
 H         -6.4882809746        1.9023184047        2.6347729009
 H         -7.3688965371        3.2530131384        0.7669129936
 H         -6.5451243833        2.8703675169       -1.5277815273
 H         -4.8386140662        1.1324336349       -1.9528353764
 H          2.0891555919       -0.4303255157       -1.9609672525
 H          4.2376086108       -1.6293488064       -2.2635165610
