  66
       -109.81329346
 O          0.2691761532        5.4731152605        1.3826473778
 S          0.0632974218        4.7797908543        0.1426339717
 O         -0.0765108143        5.5392877962       -1.0679620493
 C          1.2808480223        3.4696682275       -0.0705102571
 C          1.6966719364        2.7842594400        1.0570053172
 C          2.1966604215        1.5024095680        0.9290387320
 C          2.2620525393        0.9098771942       -0.3288703717
 N          2.5872546892       -0.4677557164       -0.4125075187
 C          1.5729185317       -1.3728148517       -0.7386535340
 C          0.3515711440       -0.9352531441       -1.2520694513
 C         -0.6494045259       -1.8274009531       -1.5942528101
 C         -0.4627769975       -3.1864108911       -1.4356526605
 C          0.7289280462       -3.6387905350       -0.9000192693
 C          1.7268992437       -2.7481995944       -0.5419407935
 S          3.1498344974       -3.4360207577        0.2569551397
 C          4.3278704756       -2.1380698379        0.0066969185
 C          5.6699753929       -2.4589901783        0.1250798561
 C          6.6405136332       -1.4804734454        0.0015486080
 C          6.2570086634       -0.1776138972       -0.2584440710
 C          4.9184634135        0.1413424601       -0.3995574906
 C          3.9258872607       -0.8290888107       -0.2615621956
 C          1.9548622504        1.6524666751       -1.4671503801
 C          1.4456355754        2.9312607254       -1.3333351599
 C         -1.2571234052        3.5691726590        0.2967167105
 C         -1.7772729920        3.0148272206       -0.8590642245
 C         -2.4209397039        1.7938083246       -0.8051814369
 C         -2.5192936655        1.1161044809        0.4110799411
 N         -3.0001895194       -0.1914372896        0.4573203223
 C         -4.1424490216       -0.6808377906       -0.1494053819
 C         -5.1490487447        0.0026040956       -0.8146831064
 C         -6.2137951232       -0.7327061661       -1.3010478453
 C         -6.2850953398       -2.1123337463       -1.1243972839
 C         -5.2966443712       -2.7937026512       -0.4419792731
 C         -4.2164277505       -2.0769746625        0.0551629377
 C         -3.0452272426       -2.4451745989        0.8027182910
 C         -2.5448024743       -3.6589340135        1.2548512216
 C         -1.3290252878       -3.6708531968        1.9077957279
 C         -0.6081432309       -2.4953681196        2.1010172729
 C         -1.0895942547       -1.2751184464        1.6677082894
 C         -2.3215245637       -1.2547924834        1.0311741418
 C         -2.0723903726        1.7290659747        1.5833275898
 C         -1.4318307301        2.9502751257        1.5218124661
 H          1.5848569205        3.2507564041        2.0228029281
 H          2.4910860644        0.9335947133        1.7982774983
 H          0.1658380617        0.1207401182       -1.3700802131
 H         -1.5799260745       -1.4493220904       -1.9898726288
 H         -1.2376443849       -3.8855312516       -1.7055743326
 H          0.8950002375       -4.6918962674       -0.7331475870
 H          5.9399510947       -3.4829782340        0.3330072526
 H          7.6825172797       -1.7371249888        0.1085455415
 H          6.9985888390        0.5997279963       -0.3604304573
 H          4.6328567201        1.1596112653       -0.6156860055
 H          2.0743347681        1.2058689045       -2.4430928114
 H          1.1436340647        3.5107562977       -2.1915416531
 H         -1.6381357403        3.5348890816       -1.7938556688
 H         -2.7915951321        1.3306968997       -1.7068402556
 H         -5.1120836107        1.0744043818       -0.9388385635
 H         -7.0097395276       -0.2250743149       -1.8252172526
 H         -7.1323087024       -2.6513406354       -1.5209985127
 H         -5.3606007650       -3.8605410144       -0.2911726156
 H         -3.0939518014       -4.5728131826        1.0865413372
 H         -0.9190584838       -4.6039173753        2.2633068851
 H          0.3510757551       -2.5405211644        2.5945587917
 H         -0.5128535666       -0.3718179046        1.8020947688
 H         -2.2097005108        1.2267482630        2.5285139567
 H         -1.0469912199        3.4288555688        2.4084150510
