  66
  -107.495233650000       0.263791017275314      !
 C          0.6171818000        0.0692971788        0.0415420102
 C         -0.6172431880        0.0686848173        0.0368200268
 C         -1.9841354159        0.0597679151        0.0292260997
 C         -2.7240861714       -0.5886440374        1.0641745074
 C         -4.0868346930       -0.6098104076        1.0421325608
 C         -4.7976149885        0.0280083259        0.0068146571
 N         -6.2047993764        0.0046740637       -0.0059012094
 C         -6.8914869315       -1.2036700053       -0.0517394905
 C         -6.2331684676       -2.4271882682       -0.1660064736
 C         -6.9450560626       -3.6126877263       -0.2014462420
 C         -8.3269840137       -3.6043623871       -0.1377007952
 C         -9.0014109926       -2.3958279713       -0.0658820799
 C         -8.2958912300       -1.2056501629       -0.0323643489
 O         -9.0274562263       -0.0495896245       -0.0048021244
 C         -8.3403966952        1.1337235240        0.0126647208
 C         -9.0914438311        2.2959060100        0.0384929873
 C         -8.4643861440        3.5301813220        0.0997343168
 C         -7.0838819373        3.5925270240        0.1607614576
 C         -6.3265502962        2.4352032150        0.1339066160
 C         -6.9369028450        1.1862579610        0.0305729938
 C         -4.0855277022        0.6837805705       -1.0160305902
 C         -2.7222366880        0.6941283631       -1.0156947539
 C          1.9840881130        0.0638007901        0.0411018104
 C          2.7250736900        0.6956145287       -1.0033994711
 C          4.0881694800        0.6846251048       -1.0005215037
 C          4.7978064162        0.0318255690        0.0261486959
 N          6.2047696898        0.0045368688        0.0121064277
 C          6.9389500121        1.1852039117        0.0310648605
 C          6.3315343736        2.4354312908        0.1374588095
 C          7.0902685904        3.5920452048        0.1450330937
 C          8.4695559013        3.5279239169        0.0613004658
 C          9.0943759913        2.2926483437       -0.0025933403
 C          8.3418971304        1.1311652835       -0.0087730164
 O          9.0270837403       -0.0530703352       -0.0301186232
 C          8.2938324783       -1.2083417855       -0.0348369679
 C          8.9979599489       -2.3993678855       -0.0688942298
 C          8.3218909977       -3.6079981695       -0.1182039032
 C          6.9392376009       -3.6157496808       -0.1591683975
 C          6.2287834712       -2.4293540754       -0.1239257408
 C          6.8893557059       -1.2052417213       -0.0320987630
 C          4.0843127632       -0.5989593646        1.0638833543
 C          2.7214037122       -0.5779918545        1.0820610436
 H         -2.1794794455       -1.0552553671        1.8714977222
 H         -4.6417665634       -1.0911496989        1.8355818489
 H         -5.1577319222       -2.4431387480       -0.2381296244
 H         -6.4106376959       -4.5461370339       -0.2860647558
 H         -8.8831003620       -4.5281046101       -0.1602028225
 H        -10.0784678316       -2.3519059116       -0.0426178478
 H        -10.1659671075        2.2099178846        0.0178815236
 H         -9.0558500205        4.4317515521        0.1161428954
 H         -6.5859261295        4.5468280018        0.2362632580
 H         -5.2524997607        2.4935750517        0.2047839629
 H         -4.6380266477        1.1507026136       -1.8197162765
 H         -2.1756304400        1.1725432157       -1.8147225876
 H          2.1805045846        1.1719136602       -1.8050582933
 H          4.6427845165        1.1488288574       -1.8043333027
 H          5.2588286763        2.4951784050        0.2254056087
 H          6.5946291587        4.5472656464        0.2230490554
 H          9.0620293222        4.4289859801        0.0617737775
 H         10.1683191231        2.2054324445       -0.0407466623
 H         10.0752198494       -2.3558672996       -0.0640004699
 H          8.8769275409       -4.5323041263       -0.1410272679
 H          6.4027457775       -4.5495625140       -0.2254737439
 H          5.1523849386       -2.4457034036       -0.1789111125
 H          4.6369911685       -1.0745666056        1.8623733791
 H          2.1748027157       -1.0398784012        1.8907781064
  66
  -107.495217950000       0.259444687453325      !
 C          0.6170435716       -0.1289756880       -0.0025840327
 C         -0.6173866571       -0.1273132915       -0.0025224901
 C         -1.9842387327       -0.1102822414       -0.0010282198
 C         -2.7127269336        0.3954163951        1.1182679106
 C         -4.0751642365        0.4346194322        1.1065367491
 C         -4.7968537760       -0.0463406458       -0.0031665793
 N         -6.2037453917       -0.0035605169       -0.0058864397
 C         -6.9511985583       -1.1702214988       -0.1210590640
 C         -6.3566168568       -2.4292603506       -0.1867425588
 C         -7.1290789127       -3.5707186899       -0.3057661614
 C         -8.5090992383       -3.4837843064       -0.3476059213
 C         -9.1202086752       -2.2443915464       -0.2434759023
 C         -8.3540109488       -1.0980973678       -0.1232200170
 O         -9.0252661440        0.0861291934        0.0164722599
 C         -8.2784199460        1.2263055869        0.1380262849
 C         -8.9680211643        2.4196060717        0.2642258425
 C         -8.2775402772        3.6181165257        0.3504241938
 C         -6.8956315992        3.6167934838        0.2844475263
 C         -6.1995957408        2.4278539795        0.1602610499
 C         -6.8741789056        1.2087698388        0.1128656789
 C         -4.0965287020       -0.5645535020       -1.1095507677
 C         -2.7333600011       -0.5891602710       -1.1182860309
 C          1.9838333639       -0.1129531347        0.0008169260
 C          2.7340452289       -0.5843366582       -1.1189822779
 C          4.0971071988       -0.5594498398       -1.1091437360
 C          4.7968370585       -0.0500680993        0.0018999055
 N          6.2035362649       -0.0065433341       -0.0002494018
 C          6.8737363409        1.2045918769        0.1327848756
 C          6.1990408068        2.4226910017        0.1989539425
 C          6.8949416525        3.6099715606        0.3385446137
 C          8.2768796638        3.6109310244        0.4012960007
 C          8.9674578589        2.4141272503        0.2954261793
 C          8.2779822238        1.2225405317        0.1535963960
 O          9.0251253607        0.0849249742        0.0121272159
 C          8.3541824865       -1.0976201704       -0.1424775776
 C          9.1208026578       -2.2411831923       -0.2841238241
 C          8.5103447387       -3.4795552357       -0.4030135186
 C          7.1307497047       -3.5684770915       -0.3536161190
 C          6.3579662038       -2.4296501832       -0.2137374612
 C          6.9515576237       -1.1708951228       -0.1342912838
 C          4.0740375036        0.4217281501        1.1149786686
 C          2.7115624552        0.3838988361        1.1246838110
 H         -2.1595217234        0.7399221769        1.9792985338
 H         -4.6217115951        0.8080932105        1.9615457583
 H         -5.2829588607       -2.5094179720       -0.1323026898
 H         -6.6433664899       -4.5327390723       -0.3595298583
 H         -9.1124008950       -4.3724350818       -0.4441177375
 H        -10.1935708996       -2.1432212537       -0.2456157975
 H        -10.0454406067        2.3872000290        0.2850499538
 H         -8.8212351757        4.5439020871        0.4520799359
 H         -6.3488056385        4.5462373391        0.3231768950
 H         -5.1240595051        2.4389455741        0.0882377495
 H         -4.6576457403       -0.9119663737       -1.9660015848
 H         -2.1953102544       -0.9601428835       -1.9779298475
 H          2.1967159426       -0.9489207656       -1.9818247255
 H          4.6587921055       -0.8997385557       -1.9681841360
 H          5.1234294465        2.4348755851        0.1288240842
 H          6.3478759297        4.5385201155        0.3921304909
 H          8.8205531745        4.5352969675        0.5149805212
 H         10.0450240322        2.3817483068        0.3124618267
 H         10.1940253016       -2.1388557960       -0.2906159702
 H          9.1138079421       -4.3661029851       -0.5166089226
 H          6.6456507389       -4.5302375530       -0.4179659370
 H          5.2848509106       -2.5118354047       -0.1533472165
 H          4.6198118149        0.7873596723        1.9738936226
 H          2.1576699317        0.7222355491        1.9877340134
  66
  -107.495221860000       0.260520374516856      !
 C          0.6168906413        0.0598484757       -0.0597532682
 C         -0.6174938644        0.0681498292       -0.0654293381
 C         -1.9843905494        0.0658232299       -0.0600422239
 C         -2.7126424112       -0.0405910723        1.1638186364
 C         -4.0755585485       -0.0433484002        1.1694855224
 C         -4.7974395416        0.0376010055       -0.0372984991
 N         -6.2045745003        0.0131552487       -0.0236520667
 C         -6.9043829087       -0.9900433579       -0.6852866051
 C         -6.2588713827       -2.0314302362       -1.3501022217
 C         -6.9849042918       -3.0104549262       -2.0043347604
 C         -8.3679449276       -2.9811535955       -1.9985270919
 C         -9.0281905442       -1.9774551836       -1.3079526891
 C         -8.3085016302       -0.9954744472       -0.6494917896
 O         -9.0256667735       -0.0619967234        0.0481513257
 C         -8.3250567134        0.9100089580        0.7092441981
 C         -9.0604554199        1.8511719908        1.4081442249
 C         -8.4192985271        2.8901715652        2.0641171347
 C         -7.0417474260        2.9959044622        1.9938857740
 C         -6.2997900477        2.0566551098        1.3004450842
 C         -6.9226646221        0.9800239500        0.6709165385
 C         -4.0969126281        0.1401914216       -1.2546807248
 C         -2.7337845439        0.1653467846       -1.2712971726
 C          1.9836757891        0.0484717619       -0.0451508707
 C          2.7390912817        0.1258003055       -1.2544059666
 C          4.1020912771        0.1206150761       -1.2295793641
 C          4.7967287879        0.0174543572       -0.0086366443
 N          6.2038689827       -0.0009535153        0.0089852189
 C          6.9333196593        1.0669033333       -0.5019281905
 C          6.3191540058        2.2224992457       -0.9823133489
 C          7.0731265583        3.2651928707       -1.4901302821
 C          8.4539280673        3.1851706011       -1.5176043767
 C          9.0846193186        2.0618236149       -1.0068822565
 C          8.3369116765        1.0154612737       -0.4954998666
 O          9.0266342910       -0.0429572182        0.0302845542
 C          8.2976789362       -1.0764066462        0.5529956113
 C          9.0065847237       -2.1403313424        1.0830765650
 C          8.3356546566       -3.2408610738        1.5921849068
 C          6.9537393004       -3.2807874233        1.5435941943
 C          6.2384500748       -2.2205509549        1.0163583623
 C          6.8932048139       -1.0867406885        0.5378080146
 C          4.0687631821       -0.0676243467        1.1940069338
 C          2.7058719535       -0.0423599321        1.1833991418
 H         -2.1580293397       -0.1304773913        2.0860021793
 H         -4.6210791886       -0.1398636450        2.0980609155
 H         -5.1818516754       -2.0760347843       -1.3414581317
 H         -6.4603953809       -3.8029398770       -2.5153336623
 H         -8.9350813819       -3.7411347751       -2.5121664352
 H        -10.1047014250       -1.9406627855       -1.2593429584
 H        -10.1342991821        1.7552634665        1.4193895452
 H         -8.9985525279        3.6176462167        2.6101850410
 H         -6.5344547050        3.8172067254        2.4759706237
 H         -5.2286510729        2.1590301440        1.2338596226
 H         -4.6593273141        0.2295046829       -2.1738865023
 H         -2.1967525505        0.2685692939       -2.2024603833
 H          2.2058808410        0.1779531691       -2.1920158989
 H          4.6685173419        0.1635898776       -2.1496594852
 H          5.2448618631        2.3036557018       -0.9448521303
 H          6.5725025401        4.1467352816       -1.8595229891
 H          9.0428197797        3.9953935193       -1.9173117809
 H         10.1594068631        1.9784615743       -0.9881816526
 H         10.0835265940       -2.0887746546        1.0795544514
 H          8.8943306430       -4.0645325516        2.0074305753
 H          6.4217212309       -4.1441925092        1.9120957585
 H          5.1630016303       -2.2712417826        0.9631316117
 H          4.6098786626       -0.1217362697        2.1286165663
 H          2.1476782259       -0.0806552037        2.1070418793
  66
  -107.495045830000       0.216243920754504      !
 C          0.6172052275       -0.3117451435       -0.1296447922
 C         -0.6171610604       -0.3055142446       -0.1284478593
 C         -1.9832687437       -0.2661230926       -0.1140386731
 C         -2.7320381933       -0.8883807521        0.9302506835
 C         -4.0934012938       -0.8189929164        0.9520637755
 C         -4.7902063251       -0.1133428193       -0.0475839368
 N         -6.1930345025       -0.0092742766       -0.0013625833
 C         -6.9942445655       -1.1444776858       -0.0397675224
 C         -6.4608762779       -2.4244819806       -0.1818296007
 C         -7.2857557028       -3.5346322947       -0.2110098532
 C         -8.6583716340       -3.3924438165       -0.1125190043
 C         -9.2100994587       -2.1250663488       -0.0110362359
 C         -8.3913200353       -1.0095594493        0.0162094253
 O         -9.0057960981        0.2118349237        0.0741435095
 C         -8.2063201333        1.3220733514        0.1028733171
 C         -8.8379008319        2.5513960073        0.1761717727
 C         -8.0904394315        3.7159416066        0.2518029680
 C         -6.7094118864        3.6409022551        0.2799139161
 C         -6.0711587164        2.4160676673        0.2043330408
 C         -6.8045173799        1.2365882563        0.0850405456
 C         -4.0692171757        0.5012415671       -1.0896293793
 C         -2.7095604818        0.4187981753       -1.1349774802
 C          1.9834313708       -0.2784937009       -0.1220761430
 C          2.7077854281        0.3726598245       -1.1665392725
 C          4.0677484060        0.4530743106       -1.1292067926
 C          4.7912395831       -0.1249728616       -0.0679169641
 N          6.1931867416       -0.0142966055       -0.0216944915
 C          6.8025100108        1.2353320042        0.0217627619
 C          6.0678967001        2.4191636926        0.0687857706
 C          6.7051562623        3.6464761396        0.1033858708
 C          8.0864264260        3.7207479061        0.1071508741
 C          8.8341735903        2.5540461994        0.1039115013
 C          8.2034985178        1.3224508113        0.0702633815
 O          9.0036205685        0.2131222225        0.1130368533
 C          8.3913344666       -1.0104141085        0.0873827650
 C          9.2105090090       -2.1251735216        0.1252144736
 C          8.6617190748       -3.3960947394        0.0595223763
 C          7.2923236226       -3.5433968820       -0.0707579586
 C          6.4670590481       -2.4339126493       -0.1068893167
 C          6.9962224083       -1.1487231977        0.0012433045
 C          4.0962292948       -0.8009720463        0.9538172992
 C          2.7351031953       -0.8732877151        0.9361305512
 H         -2.1944768165       -1.4035866797        1.7122941486
 H         -4.6542341836       -1.2752743347        1.7560897032
 H         -5.3940121904       -2.5434393624       -0.2819123037
 H         -6.8471568958       -4.5147038364       -0.3179768255
 H         -9.3022891669       -4.2573661322       -0.1297615759
 H        -10.2770641730       -1.9771552078        0.0401245138
 H         -9.9159228373        2.5726355132        0.1798217802
 H         -8.5893230602        4.6705190682        0.3050849138
 H         -6.1177390375        4.5388938859        0.3679739498
 H         -4.9952521371        2.3665533936        0.2488088871
 H         -4.6154531535        1.0161423462       -1.8678716057
 H         -2.1570121145        0.8695657900       -1.9458746402
 H          2.1531121830        0.7962374163       -1.9904837961
 H          4.6119493041        0.9390777829       -1.9272152981
 H          4.9911713386        2.3726142487        0.0887357079
 H          6.1120851843        4.5474184773        0.1326268412
 H          8.5845847056        4.6769817104        0.1289650360
 H          9.9116843186        2.5754117509        0.1354772164
 H         10.2755907227       -1.9744033467        0.1987114363
 H          9.3059377749       -4.2602946669        0.0930273999
 H          6.8570812734       -4.5273556038       -0.1522581655
 H          5.4032622723       -2.5576320475       -0.2305173150
 H          4.6586741833       -1.2305624950        1.7712726799
 H          2.1997852534       -1.3648900995        1.7347583589
