  71
       -110.39777051
 C         -0.2567789157        3.8584844578        1.6519444271
 C          0.7557231900        4.1420856860        0.7486014606
 N          1.0359206665        3.3683601650       -0.2872003397
 C          0.3345127306        2.2658884368       -0.4542294771
 C         -0.6834312667        1.8551866332        0.4096171473
 C         -1.4166515844        0.5994901949        0.1850076725
 C         -2.8048774753        0.6189806435        0.1836170920
 C         -3.5354230908       -0.5322912423       -0.0877347796
 N         -4.9342317731       -0.4861354667       -0.1083026990
 C         -5.7003871821        0.4376460251       -0.7937738427
 C         -5.3032848544        1.4692067829       -1.6326194070
 C         -6.2890403182        2.2388357289       -2.2201745202
 C         -7.6403409905        1.9892570764       -1.9919678148
 C         -8.0420191158        0.9480178518       -1.1795858438
 C         -7.0695889799        0.1605322789       -0.5776045597
 C         -7.1233291789       -0.9864798020        0.2850214250
 C         -8.1669555899       -1.7060307638        0.8516547273
 C         -7.8647915646       -2.7724498834        1.6745446696
 C         -6.5419895681       -3.1137408132        1.9475646047
 C         -5.4867415538       -2.4126716638        1.3958817101
 C         -5.7841871981       -1.3558787737        0.5473548226
 C         -2.8625103457       -1.7231432158       -0.3479152189
 C         -1.4824897333       -1.7510847903       -0.3247326537
 C         -0.7405736959       -0.6047649112       -0.0590384227
 C          0.7291396415       -0.6627372440       -0.0231843505
 C          1.4361108809       -0.1271286314        1.0514938978
 C          2.8144701883       -0.1157764716        1.0520713429
 C          3.5192976190       -0.6336869178       -0.0321299378
 N          4.9157353507       -0.5546754964       -0.0574997998
 C          5.6496957885        0.5936887782        0.1725689526
 C          5.2109835324        1.8875767424        0.4157959535
 C          6.1687187922        2.8689029156        0.5857248918
 C          7.5296810558        2.5807065021        0.5077018873
 C          7.9700973150        1.3009394073        0.2362789986
 C          7.0269734720        0.2967269001        0.0605922721
 C          7.1192421252       -1.1018237286       -0.2534253927
 C          8.1860828943       -1.9639201654       -0.4689015668
 C          7.9201238889       -3.2911698782       -0.7402856554
 C          6.6108560172       -3.7651583287       -0.7822980003
 C          5.5327420286       -2.9271626619       -0.5704999455
 C          5.7927901333       -1.5871190687       -0.3222811061
 C          2.8210014117       -1.2105739362       -1.0888723071
 C          1.4405867429       -1.2310898291       -1.0761506056
 C         -0.9866885178        2.6950035122        1.4779764614
 H         -0.4640570364        4.5252600430        2.4746687975
 H          1.3683548581        5.0280252312        0.8494942463
 H          0.5879606488        1.6775554408       -1.3265410759
 H         -3.3258522501        1.5434908703        0.3853768507
 H         -4.2598438705        1.6605755229       -1.8333566739
 H         -6.0045040283        3.0497159987       -2.8746937686
 H         -8.3802147060        2.6158044403       -2.4677605861
 H         -9.0891963113        0.7426878638       -1.0163169614
 H         -9.1916854226       -1.4303192123        0.6527064086
 H         -8.6613297705       -3.3474604890        2.1225908268
 H         -6.3362134720       -3.9432481675        2.6077609273
 H         -4.4656459763       -2.6747606892        1.6289849293
 H         -3.4241411569       -2.6153211677       -0.5794193938
 H         -0.9631998653       -2.6802722380       -0.5087323047
 H          0.8978718140        0.2733205483        1.8980555805
 H          3.3562267721        0.2925497488        1.8918402158
 H          4.1588349626        2.1274837115        0.4538167665
 H          5.8537101545        3.8838176512        0.7780356431
 H          8.2464151696        3.3758359247        0.6504103275
 H          9.0240017201        1.0811163621        0.1554866437
 H          9.2012454131       -1.5995455770       -0.4207778451
 H          8.7354673710       -3.9774561728       -0.9148002261
 H          6.4345036181       -4.8119147851       -0.9822229506
 H          4.5226061431       -3.3080076655       -0.5871835209
 H          3.3642461461       -1.6122927122       -1.9309344733
 H          0.9033152147       -1.6540150660       -1.9127892418
 H         -1.7701260773        2.4253768553        2.1727777472
