138
 energy: -191.186005038181 gnorm: 0.000059288253 xtb: 6.7.1 (edcfbbe)
C            7.38456844944698       -8.02919587725441        2.36814900098469
C            7.05086400239882       -7.69325813402443        0.90676776762480
C            5.64652445521803       -8.21164685158797        0.56230095859420
C            8.05935644547112       -8.41644029790096        0.00879434409280
C            7.08162207008110       -6.18304635745376        0.72639303633655
C            6.21433046690383       -5.38261954033567        1.46754807676686
C            6.20655762025144       -4.00871021624658        1.33757714891010
C            7.07686342854596       -3.36874082283607        0.45828027130038
C            7.07650795605969       -1.90455513965367        0.32015600628727
C            8.29092773334825       -1.20942631263260        0.22693704439262
C            8.34331688574477        0.16311006514667        0.09704254662566
C            7.14328825059865        0.85838564516496        0.04623474580286
C            5.90798075383515        0.17970534078323        0.15679391963826
C            5.87943932232617       -1.20010124373413        0.29216468151811
C            4.88572082067293        1.18927938595633        0.10666272862641
C            3.50229353871544        1.14168026552590        0.14815884943649
C            2.78279036089058        2.33023740687205        0.06430588625857
C            1.32287373244911        2.34850282236580        0.09509631387778
C            0.52376814759003        1.24452730876094       -0.22995300961096
N           -0.79025275813580        1.28918262932508       -0.21518654455053
C           -1.39150500024599        2.43891691386233        0.12663991801204
C           -2.85222396455981        2.44697260891599        0.13183444688482
C           -3.58893068829733        3.63731405519790        0.25468976550304
C           -4.96714462226869        3.64573944584682        0.25328589616045
C           -5.63337752902365        2.43379417054715        0.11701674211542
C           -4.90917422661623        1.22069847915615        0.00555950333066
C           -3.52702114622750        1.23268019168836        0.01032048301338
C           -5.88858494156774        0.17218378185364       -0.08727904620528
C           -5.79892510565523       -1.20352306034290       -0.23259846770090
C           -6.96507898621925       -1.95334845364857       -0.32567708290779
C           -6.89741109685377       -3.41400843001743       -0.48351738691830
C           -5.97909353685841       -4.17194813808879        0.23545332302117
C           -5.91153046730997       -5.54558658695934        0.08658607761703
C           -6.75334723804989       -6.22064872606104       -0.78967198936007
C           -6.71052434471830       -7.72804293713218       -0.98997759929350
C           -5.65099998642221       -8.41027690792249       -0.11918163743071
C           -8.08047849633618       -8.32178035206666       -0.62911987977110
C           -6.38559680069358       -8.02793017330250       -2.46115367715006
C           -7.66957468742017       -5.45588566699570       -1.50919000795924
C           -7.74539565423535       -4.08593270587293       -1.36071523353848
C           -8.20873199678457       -1.30734691640754       -0.27808299129104
C           -8.32120876272702        0.05977830466621       -0.12775407422331
C           -7.15277373882186        0.80092717359377       -0.02140891579856
N           -6.98085589706624        2.16589957938446        0.10333655205225
C           -8.01359257899381        3.11544867285967        0.19945089206593
C           -8.04883962378926        4.21008471283616       -0.65382539281013
C           -9.06782947188528        5.14101533242922       -0.55395908957150
C          -10.08340205728852        5.00690807410967        0.38601848462142
C          -11.22427798519757        6.00351930552517        0.52200783254468
C          -11.19240764131371        6.60982316018883        1.93310544841956
C          -12.55691304760487        5.27253328405229        0.29961051943260
C          -11.13273369119513        7.14765970393167       -0.49224819869628
C          -10.03288977560169        3.90062194064671        1.23254104637719
C           -9.01731466674353        2.96920920324907        1.15060304879038
C           -0.59036754057372        3.54162060164285        0.45301959607701
N            0.72485514025900        3.49879864436056        0.43388228235989
C            3.46718885426820        3.55172518202026       -0.06144050334070
C            4.84092789482952        3.61904543710371       -0.11297862260644
C            5.55668396844423        2.43096617672811       -0.01734905826161
N            6.91350568897925        2.21557822717321       -0.05753212318862
C            7.90132563081877        3.20752567028973       -0.19288413916719
C            8.86629176266720        3.10976136952769       -1.18631126047427
C            9.83759141141468        4.08684312538441       -1.31513819931129
C            9.87312992584591        5.19033410957045       -0.47016412659443
C           10.92063135039197        6.28735213030187       -0.58269962279298
C           10.21614690046520        7.62770425520038       -0.84094409498859
C           11.91261145294633        6.04159674605009       -1.72367061565030
C           11.71105651917881        6.36018933980617        0.73246634033726
C            8.89462247669398        5.27321076542582        0.51906789867742
C            7.92545235817324        4.30111391703820        0.66542804593073
C            7.94558826207398       -4.16254709835224       -0.28316954230757
C            7.94503456585307       -5.53974090739488       -0.15268967421735
H            8.37157085363664       -7.64935977039888        2.62566328801807
H            6.66239141052891       -7.58959853772587        3.05080661960807
H            7.38000487141161       -9.10738784731931        2.51507624620156
H            4.89341477907990       -7.78261403717468        1.21763103924124
H            5.39145996303874       -7.95439588099713       -0.46416705185931
H            5.61113406507589       -9.29427399794775        0.66608062552861
H            9.07717326222373       -8.10466804601334        0.23252578837504
H            7.85137298662766       -8.22996328422797       -1.04253535459561
H            7.99197663310795       -9.48925329330615        0.17937524340993
H            5.52698003388755       -5.83470128572709        2.16745859007914
H            5.53112158423123       -3.41981833023689        1.94229933616054
H            9.21398883771585       -1.76758359389797        0.28289949033471
H            9.29039477849230        0.67906224234478        0.04899697807861
H            4.93603699781227       -1.72113664199945        0.35899827115181
H            3.00102686281837        0.19291821748423        0.26261149832956
H            0.95020385620222        0.29781280186691       -0.53531150257023
H           -3.07105919599107        4.57961447388188        0.34270064067472
H           -5.51110536188680        4.57194087977652        0.36060782823240
H           -2.95780062041948        0.32103274343475       -0.07643352504919
H           -4.83278566761755       -1.68066822563748       -0.29854140555892
H           -5.31821260281863       -3.68219929712429        0.93693690058137
H           -5.18473859555477       -6.08351107990423        0.67385147479452
H           -5.84950352491691       -8.24837829631757        0.93803958390763
H           -4.65447260961976       -8.04388524438075       -0.35565480926821
H           -5.66674023018923       -9.48281661186532       -0.30350169388548
H           -8.86612523760509       -7.92070354996916       -1.26361009828252
H           -8.06355796852708       -9.40306065075715       -0.75035314359937
H           -8.32854892561901       -8.09396545635053        0.40594929755447
H           -5.42497614603169       -7.59271098025749       -2.73049581932607
H           -6.33508576396682       -9.10295828262688       -2.62210485492309
H           -7.14207077155569       -7.61937521664414       -3.12566224256275
H           -8.34195495057319       -5.93347947897085       -2.20667143405906
H           -8.45689659973795       -3.52507521741990       -1.95027826343871
H           -9.10714317021141       -1.90322395104319       -0.34500163689533
H           -9.28984144660206        0.53578877234633       -0.10267510904495
H           -7.28191462270261        4.32516535433519       -1.40584760762298
H           -9.05730692884242        5.97505782425288       -1.23606051734656
H          -10.24159323272941        7.11007439861830        2.10690626003552
H          -11.99148471842112        7.33978852185190        2.04382536022563
H          -11.32037743957564        5.84728654125750        2.69643361195888
H          -12.57508970410641        4.81369644783898       -0.68717158227194
H          -12.71190630012127        4.49343954414556        1.04079780464392
H          -13.38389085082459        5.97610645801017        0.36810771463656
H          -11.17440026172448        6.77173600353639       -1.51207968705125
H          -11.97281076550870        7.82453233313765       -0.34994369685031
H          -10.21678659769104        7.71866551595769       -0.35810724256937
H          -10.79637723892192        3.75759215195867        1.98185603912964
H           -8.99076596034511        2.12966113968086        1.82975365448374
H           -1.00946557510517        4.49303911476434        0.75193479917182
H            2.87686982120964        4.45244783124624       -0.12654868765837
H            5.34427041626416        4.56629352839676       -0.23228833619521
H            8.84828160096108        2.27109399523106       -1.86688222378653
H           10.56701899794224        3.97221167169230       -2.09985827138482
H            9.54814066425981        7.88964552767234       -0.02510405789972
H           10.95221555210921        8.42201783055401       -0.94561230806689
H            9.63180081151318        7.57585319705145       -1.75770447460541
H           11.40398967069833        6.00617693953650       -2.68445527094511
H           12.63421018106746        6.85545824288000       -1.75642582609557
H           12.46078691417478        5.11416618367724       -1.57397873421954
H           12.19283185021416        5.40574356848048        0.93599994339581
H           11.06456461270709        6.60147591515042        1.57168151249313
H           12.47990123406100        7.12685234512895        0.66368142122120
H            8.88478547217784        6.10926722302662        1.20151463890552
H            7.18925471437413        4.37909100503620        1.45196718140701
H            8.62034012750161       -3.69840514128442       -0.98873983919292
H            8.63534731853268       -6.10605206548792       -0.75697703608704
