138
 energy: -191.112030728752 gnorm: 0.000117087606 xtb: 6.7.1 (edcfbbe)
C           11.65186480159831        7.05827025876384        0.15445592851436
C           10.18147298189879        7.06161375568799       -0.29000624753266
C           10.07943485600377        7.54644661659408       -1.74418085990022
C            9.41713075665137        8.04969206502070        0.59648195233269
C            9.63290179212304        5.64587126505192       -0.19938072873391
C            8.55397966206622        5.29826564842235        0.60548129928720
C            8.08332705976730        3.99881892242574        0.65745626845786
C            8.67680290760428        2.98654766047826       -0.09081819881502
C            8.17655157305624        1.60655633001736       -0.03598315970463
C            9.07510710692680        0.53070682308073       -0.01711243956869
C            8.64952456784231       -0.78139584076110        0.03023194396728
C            7.28245781760591       -1.02436155018900        0.04338417494490
C            6.35854523071513        0.04739735585807        0.04643729792932
C            6.80734723495238        1.35541582240343        0.00683853305412
C            5.04642573517685       -0.54544404713253        0.10876457570700
C            3.77482681399080       -0.01221158755066        0.11831978862185
C            2.66379644717081       -0.87614455312342        0.16693886079985
C            1.31724527070114       -0.40641863558933        0.19362016043615
C            0.92462252316906        0.93331210045814       -0.03698279833557
N           -0.30705846923701        1.31254500355318       -0.11778579754201
C           -1.33224639308080        0.41366398504207        0.04368431404104
C           -2.67935656793756        0.88129645174440        0.05238087117969
C           -2.91252525774558        2.28152670110432        0.06162292703472
C           -4.17331670147952        2.81986710229347        0.06064018901051
C           -5.26239712971086        1.94906775737396        0.06989834467615
C           -5.06175631271412        0.54645321436277        0.03051056056527
C           -3.78952067267965        0.01467786512701        0.02821231887262
C           -6.37533799006842       -0.04595164887657       -0.01114841610269
C           -6.82554845134822       -1.35364621354187       -0.04621255855063
C           -8.19562441712370       -1.60399017539806       -0.06664301519659
C           -8.69861320009084       -2.98310453547955       -0.11783914918149
C           -8.09099203167493       -4.00082391525463        0.61518828389904
C           -8.56756039980753       -5.29455503560665        0.56182265291924
C           -9.66445438213098       -5.63913930196705       -0.22614407731759
C          -10.14838706664353       -7.08086375640903       -0.25294548728307
C           -9.00820430820568       -7.98359155932990       -0.74768268678729
C          -10.56122806874795       -7.49664522677522        1.16710980188705
C          -11.35208240969738       -7.28332236643721       -1.17837311621684
C          -10.26588362008177       -4.62108166887195       -0.95732788260845
C           -9.79646959664290       -3.32127382260862       -0.90341128692516
C           -9.09309176487569       -0.52780582168999       -0.02914918383631
C           -8.66604646918843        0.78401828144290        0.01179393787665
C           -7.29895726367402        1.02618210839752       -0.00040896353037
N           -6.61260278034515        2.22141491168703        0.04935862536155
C           -7.18893461127108        3.49972995605654        0.08669565400709
C           -8.15709295426608        3.86772859677073       -0.84295916647952
C           -8.71166550399950        5.13059589525811       -0.80054363091715
C           -8.32519475352365        6.07098713171716        0.15355187233966
C           -8.96111352359371        7.45229058985610        0.14574707608079
C           -8.42668871942661        8.35461375832937        1.26207224057664
C          -10.47897418566862        7.30758237521932        0.33193541100890
C           -8.66446328518032        8.12919834645304       -1.20109091910448
C           -7.35686525459965        5.68690840733046        1.07485064582352
C           -6.79704303572020        4.42232547011575        1.04932392951303
C           -0.93982559855618       -0.92393502899572        0.28584988838471
N            0.29215983284125       -1.30243483527980        0.36900156576280
C            2.89655594401575       -2.27632055097549        0.18124992704724
C            4.15705388023789       -2.81638903317216        0.17492108857617
C            5.24738950497732       -1.94767883021987        0.15110124129965
N            6.59763268146273       -2.21963784356170        0.10768204585837
C            7.17838265963829       -3.49700408810735        0.11585239525241
C            6.82383635189923       -4.42929880797243        1.08330350004383
C            7.39199538405937       -5.69050178740746        1.08002984737808
C            8.33221419070378       -6.06112426930081        0.12467329831669
C            8.97828658293935       -7.43724753229038        0.08661943715906
C           10.49864233647066       -7.28084295685628        0.24026560054371
C            8.65742100111808       -8.10252650503897       -1.26045928679392
C            8.47658586333598       -8.35640479664183        1.20440164938509
C            8.68160653640751       -5.11095451786369       -0.83388097145866
C            8.11740920077381       -3.85170693733679       -0.84808071573712
C            9.76060918851197        3.32967812003112       -0.89686439984668
C           10.22189944641460        4.62900544317690       -0.94890659332600
H           11.73485169016871        6.69761333468395        1.17808520578183
H           12.25678762206697        6.41830457556092       -0.48209155474544
H           12.05883618236485        8.06642488660261        0.10923282987423
H           10.66363381764539        6.92047716635960       -2.41318165592887
H            9.04295544594024        7.52540097301503       -2.07589008771938
H           10.44730544568416        8.56732741500215       -1.82492690346060
H            9.47951218807486        7.76513070523910        1.64454131779097
H            8.37102576973679        8.10973257632160        0.30425805935521
H            9.85237387949605        9.04169117431426        0.49152825918398
H            8.06031307490844        6.04024157871561        1.21229982493767
H            7.25357005424756        3.76316400863791        1.30893261233941
H           10.13501014221404        0.73847991916976       -0.01398580805828
H            9.36203931252670       -1.59141543024097        0.06869797352404
H            6.10167264027238        2.17240826184422       -0.00994156379330
H            3.64486281943182        1.05810809743355        0.08567023749012
H            1.67022139592154        1.69077720350932       -0.23693188336117
H           -2.04732215151242        2.92642667327932        0.05214708545454
H           -4.31650004237007        3.88978476749477        0.03873327455613
H           -3.65580181181131       -1.05519040528522       -0.00750477654424
H           -6.12066375082136       -2.17090671146127       -0.07716802053025
H           -7.24852861719551       -3.77004628113002        1.25183512302420
H           -8.06923654141799       -6.04849586272006        1.15331942303222
H           -9.34269459716217       -9.01803752186956       -0.79345360000712
H           -8.14702689534500       -7.93373259958878       -0.08693596486060
H           -8.69161024820242       -7.67850229685019       -1.74345359796024
H           -9.72528909002988       -7.43088597444642        1.85824947330551
H          -11.35707302513885       -6.85012497860250        1.53240813732810
H          -10.92287172387510       -8.52293996512524        1.16640573686536
H          -12.20094884627857       -6.68600917029088       -0.85315813880103
H          -11.10456119493967       -7.02358661182351       -2.20530507054719
H          -11.65110510830432       -8.32962204674961       -1.15963616284684
H          -11.11540652574975       -4.82691055194276       -1.58842319826319
H          -10.27856039666573       -2.56037594165338       -1.50080099927371
H          -10.15283714740782       -0.73499051982178       -0.00703993409872
H           -9.37733171687318        1.59421462481221        0.06500150688556
H           -8.45716948676953        3.16702312094084       -1.60806065003550
H           -9.45639269198296        5.38457631917254       -1.53917902690006
H           -7.35585124691490        8.51451266187254        1.15842626195027
H           -8.91674308716838        9.32468581954719        1.20790912368879
H           -8.63220183286490        7.92992248306305        2.24210147402691
H          -10.92547847604292        6.73096469050334       -0.47338535828858
H          -10.69702511593951        6.80620028616576        1.27300837193727
H          -10.94795626013794        8.28915063029403        0.34752654603150
H           -9.08391050476546        7.56566641535558       -2.02986596413785
H           -9.09221985571206        9.12937083169527       -1.21838567835247
H           -7.58990662761478        8.21100609885153       -1.35328466730881
H           -7.02383554917388        6.36996896391970        1.83868638502810
H           -6.06096554970482        4.14076583598153        1.78801464657390
H           -1.68611116598052       -1.67752240699633        0.49810678284322
H            2.03155746140178       -2.92112049131234        0.20476877056318
H            4.29722876071934       -3.88676860284690        0.18050328436729
H            6.11066497529762       -4.15866219969712        1.84805439165954
H            7.08860874017310       -6.38171157506403        1.84888892289763
H           10.73362321666262       -6.79084730386370        1.18327483479448
H           10.97696638665639       -8.25797007357906        0.23086348140788
H           10.92081952153460       -6.68814265135830       -0.56655038202990
H            9.05578577961751       -7.52844646018157       -2.09234892274893
H            9.09099378877177       -9.09968217718549       -1.29682762166326
H            7.58041645984995       -8.18980073874410       -1.39074748683546
H            7.40428639577569       -8.52055415422159        1.12525991664147
H            8.70429131061165       -7.94326348579600        2.18444483639810
H            8.97013813973399       -9.32301826414065        1.12564121272172
H            9.40417805357264       -5.35385821176992       -1.59783760202875
H            8.38783358807652       -3.14228158500058       -1.61631187564620
H           10.23227287894731        2.57252528006062       -1.50713523901256
H           11.05978329695047        4.84962801282881       -1.59367473865656
