138
 energy: -191.111561516090 gnorm: 0.000065983897 xtb: 6.7.1 (edcfbbe)
C            8.89826732258295        8.00884091139919       -2.99358238522858
C            9.76600611114794        7.33225721467296       -1.92789729288489
C            9.72612608272521        8.19754452788001       -0.65931987366310
C           11.20495393801237        7.25619771129896       -2.46036558343643
C            9.29037794723357        5.92807415367336       -1.58813199599998
C            9.97493111188333        5.18077654298117       -0.63117044229047
C            9.58626586560706        3.89949496704191       -0.29764663500757
C            8.48283555508047        3.30522225247566       -0.90681849747786
C            8.06237683027167        1.94001547226688       -0.56486631895937
C            9.02026187169764        0.93771681724544       -0.35925986900408
C            8.66945515113578       -0.36420618033998       -0.06396893846130
C            7.31851329709409       -0.67188796441308        0.02500374731180
C            6.33573005748303        0.33305005080973       -0.14089232338518
C            6.70948678868199        1.62994050603964       -0.44414886483992
C            5.05982283318880       -0.30533958439577        0.06671483821934
C            3.75997018582276        0.15335801836485        0.02942758914939
C            2.70338340783038       -0.75260252841977        0.24444801615525
C            1.33318872946132       -0.35525415814017        0.22413082305494
C            0.88386226676311        0.97854559682563        0.35631449058787
N           -0.36389027859929        1.30797640308123        0.41954144986218
C           -1.34780797902852        0.35609521566839        0.31910198254782
C           -2.71589958173614        0.76331622975687        0.30353113173536
C           -3.01632207564971        2.13580582104782        0.50305060113946
C           -4.30196096174815        2.61164749642272        0.54926977199580
C           -5.34699962538135        1.70508712447746        0.37984539198021
C           -5.07716321012198        0.33878830012824        0.12064985382110
C           -3.78096992200675       -0.13221141117106        0.09034652604263
C           -6.35736769505542       -0.29293708297561       -0.07819727018466
C           -6.74057064562883       -1.59179591425249       -0.36108672217609
C           -8.09473850978124       -1.89264179710654       -0.48859815472385
C           -8.52385173346248       -3.25840197245503       -0.81622847815939
C           -7.88193235101418       -4.36848138688829       -0.27000782598814
C           -8.28386405471161       -5.64902087185318       -0.58984629170570
C           -9.33879491538491       -5.88740051391933       -1.46915587610504
C           -9.73852477396607       -7.31822921600909       -1.79526845988665
C           -8.54410208927103       -8.03458650278474       -2.44336023216592
C          -10.13391581604676       -8.03813553854259       -0.49714149596180
C          -10.92378788727177       -7.39509576984833       -2.76254599363984
C           -9.97610460054010       -4.77736172365903       -2.01167746273044
C           -9.58021512684900       -3.49141911812627       -1.69212576693003
C           -9.04546179156368       -0.87930022473799       -0.30098822901746
C           -8.68602730378005        0.42153052576627       -0.01300010932652
C           -7.33289671095982        0.72106700750895        0.07513511985363
N           -6.70879606116797        1.91856064453631        0.35189331080690
C           -7.35044942482018        3.14244782997060        0.59372414451193
C           -8.30603580983860        3.62959109235604       -0.28956003072121
C           -8.93859145422883        4.83434108977489       -0.03998253795254
C           -8.63817000509220        5.59267644848759        1.08624979256473
C           -9.30887498220792        6.92211277779110        1.39489528335411
C          -10.04779219058857        6.80800212805624        2.73688187306857
C          -10.32290512480797        7.33510795095668        0.32380082387069
C           -8.23450793176510        8.01646755526397        1.48392470842840
C           -7.67481235721056        5.09014749892372        1.96004867394593
C           -7.03955688563409        3.88765135312628        1.72730070263448
C           -0.89717586198920       -0.97984072172684        0.21631242422836
N            0.35052230471216       -1.31271143606418        0.17114644753011
C            3.01387677557834       -2.11864656696022        0.46993744957994
C            4.30308872793572       -2.58319220483218        0.51587043938601
C            5.34018025215944       -1.66767645486994        0.33989872039448
N            6.70227355446137       -1.87090566293842        0.31562413399767
C            7.35076273708501       -3.08754519551392        0.57471831170236
C            7.03823485154305       -3.82223795366449        1.71473244794829
C            7.67609374624554       -5.02059618983335        1.96152838349095
C            8.64366335204807       -5.52893125620365        1.09584328126669
C            9.31429872981228       -6.85522752904998        1.41757097806423
C           10.04065883914071       -6.73406944420140        2.76575203900834
C           10.33884793537018       -7.27170621366860        0.35790103713955
C            8.24034505402662       -7.95043010767119        1.50168292826046
C            8.94647361118157       -4.78032740493799       -0.03640777707437
C            8.31154862347519       -3.57995661338000       -0.30011917959234
C            7.79216869653828        4.04931500816394       -1.85883243234136
C            8.19010698679926        5.33100559527085       -2.19287626487612
H            8.91538450915184        7.44902631143232       -3.92610660461298
H            7.86909915059837        8.10834122477125       -2.65560546497694
H            9.28371119240136        9.00669807462747       -3.19411354350209
H            8.71303685028089        8.23860674974995       -0.26344357458016
H           10.37758149973435        7.79931082594010        0.11376637402345
H           10.04882476712305        9.21136265895341       -0.88759242869023
H           11.24422282791307        6.62923438797625       -3.34930001120138
H           11.88051136636546        6.83818753442102       -1.71903999182826
H           11.55998913141100        8.25065179299089       -2.72309410699041
H           10.83284197628357        5.60274522547497       -0.12872285560105
H           10.13278747931304        3.35808508805250        0.46150494352439
H           10.06601196829020        1.18935254428389       -0.45631677747055
H            9.42669273721376       -1.11670116382193        0.09534972686811
H            5.96088923556192        2.39892414901032       -0.56293153756383
H            3.56138864949940        1.19213064819665       -0.18424596387293
H            1.59885480707101        1.77897889730043        0.49159421769501
H           -2.18415512602192        2.80994741594944        0.63536709210021
H           -4.49557429971950        3.66219888933142        0.70645103359814
H           -3.59732323370379       -1.17477934411104       -0.11684746098175
H           -5.99491417103623       -2.35956504782673       -0.50349261590934
H           -7.07147478283910       -4.22509894389786        0.43064603353614
H           -7.75930072275251       -6.47803899843277       -0.13798500141864
H           -7.68829503268891       -8.06239415064512       -1.77426402607969
H           -8.24648742150255       -7.52056784235330       -3.35553005825895
H           -8.81301044271655       -9.05831734164983       -2.69577111433736
H           -9.30324351813065       -8.08079359648970        0.20197531108605
H          -10.95907494876670       -7.51771438352905       -0.01444198384132
H          -10.44785286230907       -9.05700154761570       -0.71498971165215
H          -11.80558083601436       -6.91851379980386       -2.33990895705543
H          -10.68453672768187       -6.92481772030229       -3.71377296783503
H          -11.16597822589778       -8.43839037534848       -2.95591813643974
H          -10.79547567426368       -4.89816632831636       -2.70185688447192
H          -10.08710116618712       -2.65432112967539       -2.15084988631510
H          -10.09380536155384       -1.13181193251570       -0.36128939486255
H           -9.43815349607532        1.17902470746843        0.14759922882417
H           -8.54118605187376        3.06958716586011       -1.18277046949075
H           -9.67095180818557        5.17626404966924       -0.75254467042657
H           -9.36344235695335        6.57763981594590        3.54878706949621
H          -10.54765714676387        7.74611028558055        2.96856830520236
H          -10.79731976108241        6.02033796753121        2.68865126952991
H           -9.84353184629580        7.45021072530946       -0.64573869141520
H          -11.12666263141967        6.60692155465581        0.24211862062977
H          -10.76480162959748        8.29186652969804        0.59487202570540
H           -7.68314224802408        8.08018574484055        0.54770255621106
H           -8.69952734415183        8.98095344191244        1.67670012643042
H           -7.52677357906342        7.81556638048552        2.28337097478387
H           -7.41277436297174        5.64043691204232        2.85074620728287
H           -6.31003269721581        3.51114604478284        2.42928500657849
H           -1.61037121253193       -1.78873571735278        0.13329647787639
H            2.18635195336752       -2.79923924061589        0.59910847088074
H            4.50754670598638       -3.63213248053865        0.67027022947901
H            6.30532491155093       -3.44074690804719        2.41044256897074
H            7.41208894628421       -5.56317936307605        2.85633336404736
H            9.34841122721550       -6.50426169474698        3.57106724738926
H           10.54205184705175       -7.66954672577346        3.00465185882481
H           10.78760912401402       -5.94372260302031        2.72184081802729
H           11.14092317909000       -6.54140262627483        0.27851944649742
H           10.78138676229988       -8.22529283912495        0.63889078600514
H            9.86840437603424       -7.39473704021150       -0.61501352196157
H            7.69950319047782       -8.02088062397329        0.55981181077513
H            7.52348775676838       -7.74513341866466        2.29186008203073
H            8.70436756626471       -8.91305664326056        1.70576256080564
H            9.68220395425781       -5.12721357288469       -0.74302532107593
H            8.54773356433803       -3.02864127671377       -1.19841408053852
H            6.94344534621580        3.61020460328218       -2.36426947533258
H            7.62274764961682        5.85837270474857       -2.94279830961478
