127
 energy: -199.202858021847 gnorm: 0.000157192800 xtb: 6.7.1 (edcfbbe)
C           12.12281004719569        4.69906512157319        1.34312573134554
C           11.29767001818633        4.00554988675644        0.56755164069291
C           10.77268154464374        2.67084695066888        0.82564175599743
C           11.00237317606683        1.97904067602978        2.01642848147658
C           10.48179934706726        0.71693969135996        2.21327747080097
C            9.72136218328074        0.10099386454174        1.22584859071117
C            9.17907324839660       -1.28997260484322        1.44494404374620
O            8.04364745295767       -1.60379786912155        0.66938203988689
C            6.86762141816819       -0.98412103393106        0.94650241619288
C            6.68564704804709        0.01634467880314        1.89606316429118
C            5.42585152663761        0.56315315670027        2.12825257423857
C            4.30807561044506        0.15604946959504        1.42717057970691
C            4.48344963355563       -0.82303365393265        0.45616614004687
C            5.74936105121328       -1.40671300035937        0.21973713721452
C            5.55992150301274       -2.40889659662661       -0.78620310257273
C            6.41429774598333       -3.29182701569207       -1.43161302783766
C            5.89158173587110       -4.12640725054660       -2.40079606760972
C            4.53957294473804       -4.07678654941614       -2.74317048994940
C            3.67085407303906       -3.20822033420873       -2.11308182057780
C            4.18057633792858       -2.38483926944246       -1.11655792949462
N            3.54552872859689       -1.42349903982227       -0.35998755760889
C            2.18293081792748       -1.14257593884231       -0.37509478095855
C            1.23997743703386       -2.19932218266803       -0.29246251283407
C           -0.09294905979541       -1.93581739821310       -0.21269313066428
N           -1.03910784425651       -2.97113200098864       -0.14214952033824
C           -1.33566653071668       -3.86498741338407       -1.14447525840335
C           -0.67307834202565       -4.10027400847989       -2.34092252538389
C           -1.19416713409674       -5.06032763752629       -3.18613047820858
C           -2.34864146930940       -5.76837175908623       -2.85498082777402
C           -3.02208516096878       -5.52888762442922       -1.67115327948358
C           -2.51759032100155       -4.56864457792331       -0.80713687137218
C           -2.93877659611425       -4.05962251579428        0.46796535352483
C           -4.05574230685298       -4.28759887453159        1.27415912010193
O           -5.03477255938539       -5.09856236161802        0.79106771248878
C           -6.37159113906241       -4.80835057960722        1.18198293702426
C           -6.64893462979708       -3.32540283061956        1.22393640447111
C           -7.41316179952639       -2.76854604505540        2.24071977263825
C           -7.50728170069942       -1.39673904731817        2.37195345850682
C           -6.80100232075619       -0.54694145796312        1.52108218857131
C           -6.76640266752071        0.88500166690063        1.79662549602337
C           -5.76649457788581        1.68671951468882        1.45351907924448
C           -6.10209027552327       -1.11035128300684        0.45407498343797
C           -6.04576054536808       -2.47918468457583        0.29861628734697
C           -4.11204760744874       -3.62727981728105        2.50228545932212
C           -3.13522625603994       -2.71544313382782        2.87876730560140
C           -2.07048386811259       -2.40833357874839        2.05349945806487
C           -1.98946877574775       -3.08705784115762        0.84540033594051
C           -0.60048953860104       -0.57938774251861       -0.25819285192924
C           -1.94803856764371       -0.33634487858036       -0.37793559343466
N           -3.09242700849195       -0.14084341317699       -0.46628338974414
C            0.38526616127493        0.48027884511556       -0.37751467432228
N           -0.08620817027744        1.78747712820470       -0.55445741993831
C            0.15952555454441        2.58043668895379       -1.65476171430370
C            1.01802772770939        2.36867667161534       -2.72538647328034
C            1.06028925534118        3.33001110559673       -3.71656558312241
C            0.26687227350578        4.47442540254496       -3.65332911200695
C           -0.60552738502979        4.68220316030908       -2.60124199875796
C           -0.66661372865861        3.72918987320487       -1.59535624702276
C           -1.44624588019792        3.60326250526862       -0.39681786963705
C           -2.45419187015833        4.38585681991808        0.17360091095627
O           -2.82668133636626        5.50005404702830       -0.50746099142488
C           -4.01974957886337        6.15532015006608       -0.13457651837988
C           -5.25382959096230        5.28963123541963       -0.23315082041523
C           -6.39255953191854        5.61900104363055        0.49197604754995
C           -7.52835301804726        4.83954497787456        0.40253264161452
C           -7.55301295555630        3.69152445194481       -0.39085187151086
C           -8.75523524015901        2.86658003631935       -0.41421470377639
C           -8.81495763528193        1.59397222513310       -0.78523605611798
C           -6.41007378129609        3.37706160496543       -1.12470881013560
C           -5.28203950917665        4.16995375272650       -1.05470058233255
C           -2.99462853401091        3.96161105418685        1.38501893562842
C           -2.54996523683445        2.79780764620683        2.00227123482482
C           -1.57796186254171        1.99514571851351        1.43872059293899
C           -1.05011971641492        2.39782214968641        0.21827443801939
C            1.71801736593108        0.19304844044782       -0.42268077435310
C            9.48904217787912        0.77806037813719        0.03657333779307
C           10.00164113929718        2.04527858510624       -0.15546139818343
H           12.49942351998520        4.32367660460411        2.27910441871303
H           12.45961501722944        5.68217935062334        1.06242933574120
H           10.96696660050844        4.44328190383132       -0.36677681698045
H           11.58586237359651        2.43475995066720        2.80099740348092
H           10.66513567900781        0.19902081767522        3.14473502888749
H            9.93019659329161       -2.02495959506233        1.13037291844072
H            8.97141780583330       -1.45257370928636        2.51205948722577
H            7.52098311000695        0.38553917464763        2.46894336523986
H            5.32687090416340        1.32506987196028        2.88651333948157
H            3.33609091293685        0.57084285412494        1.64038769740394
H            7.46179415740736       -3.31181155501555       -1.17628666242830
H            6.53831672694331       -4.82252245879000       -2.91393646379163
H            4.16670337241807       -4.72716101772459       -3.52032382388615
H            2.63167897458168       -3.16149486748635       -2.39916817268056
H            1.58990093846776       -3.21884364733027       -0.23276654127467
H            0.21363414793525       -3.54352140641068       -2.60357346894823
H           -0.69871329049319       -5.26615374029847       -4.12340362532226
H           -2.72272613653992       -6.51324281794676       -3.54158221493412
H           -3.92060103122069       -6.06730163576045       -1.41429063322033
H           -6.59237612331459       -5.26276210865611        2.15796015169392
H           -6.98766716798422       -5.30904279282196        0.42638758012498
H           -7.91549185248791       -3.41365316954952        2.94914394493918
H           -8.08911218046036       -0.97654253356304        3.18053424097118
H           -7.59789272514749        1.27109712283755        2.37432297493739
H           -4.90512625828773        1.33191988004348        0.91318535718652
H           -5.76807277410874        2.73017141026653        1.71668569138661
H           -5.57134580337496       -0.47796608332665       -0.23828173336498
H           -5.48722811279864       -2.89822183368028       -0.52555472521122
H           -4.93684801535195       -3.80952594999731        3.17210412300423
H           -3.22714544727959       -2.22229797198386        3.83442094957420
H           -1.33127908289937       -1.67513815781405        2.33460520473348
H            1.62369127956751        1.47748245715907       -2.78889392951656
H            1.72035634914496        3.19044111773443       -4.55984959818878
H            0.33217095229518        5.20419903107530       -4.44667530504708
H           -1.23274094712112        5.55807645252587       -2.55352644321748
H           -4.09804484771698        6.99028672764958       -0.84136430851064
H           -3.93231316713694        6.57913238478313        0.87618412929899
H           -6.38695629590360        6.49338104544984        1.12859910337423
H           -8.40583033542194        5.10935668603284        0.97341859911701
H           -9.65251974669803        3.35937392758743       -0.05856201625531
H           -7.94847067534650        1.04509963154270       -1.11020528039677
H           -9.74021945723436        1.04398376816166       -0.75873050846735
H           -6.40554910461425        2.51042984821790       -1.76621180684571
H           -4.41046464483581        3.91100117386057       -1.63741052580407
H           -3.77388779687410        4.53314688920576        1.86288609844834
H           -2.99160685546721        2.51099865706078        2.94432682104934
H           -1.25286293604979        1.08885925784890        1.92333774812280
H            2.43484906199875        0.99361849729707       -0.52785658652092
H            8.89858602558601        0.30811772034177       -0.73638810684715
H            9.80745291019305        2.56104202410382       -1.08520485751455
