127
 energy: -199.287252324263 gnorm: 0.000111332400 xtb: 6.7.1 (edcfbbe)
C            9.70253612501388        5.29609994307156        5.45944008016208
C            8.78395746444241        5.46016069378520        4.51507255260588
C            8.75295963043440        4.81947452048475        3.20611292087344
C            9.67176121018149        3.84517894854999        2.81230947451900
C            9.59716177029706        3.26604343034785        1.56235311073754
C            8.60844553939422        3.64565402817633        0.66223567079228
C            8.54690373861247        3.02060303054162       -0.70985627648928
O            7.26712488014348        3.04984307596213       -1.30106390157051
C            6.27101697524554        2.31379426336851       -0.73965913696381
C            6.39529629282114        1.50318803378992        0.37947867666812
C            5.30050883358413        0.80361310090165        0.87812104838177
C            4.05577822271413        0.86157719163470        0.28501526453041
C            3.92757314921651        1.65011059395316       -0.85060194795055
C            5.01462478910140        2.39111841879144       -1.35360012825335
C            4.52669922234599        3.13969728423796       -2.47702427623138
C            5.12747989825180        4.01724968504225       -3.36941202460000
C            4.35710791206152        4.56077602511264       -4.37846718449393
C            3.01303246747521        4.22444462017917       -4.51388283954338
C            2.39669824312951        3.35168490619451       -3.63654138752508
C            3.15541433668372        2.82629667441573       -2.60263128667763
N            2.80420218131702        1.91954028112088       -1.61545084980809
C            1.53928305288465        1.37105434343934       -1.41677485174330
C            1.40335436116491        0.00122512233921       -1.20344621869755
C            0.15396829616866       -0.55888382670036       -0.97748582181296
N            0.03787467524192       -1.93436840496339       -0.79069213736794
C            0.57144254112407       -2.90394636383954       -1.62510576855186
C            1.27851911475790       -2.76188878204230       -2.80855819892410
C            1.66889352988482       -3.91366501037723       -3.46701875251154
C            1.35472401183040       -5.17606895558999       -2.97110671081290
C            0.62864073351255       -5.32327783295567       -1.80555442684762
C            0.23158118611759       -4.17989583162840       -1.12530273210454
C           -0.52730449951029       -3.95912460479661        0.07274360814513
C           -1.09769753169855       -4.83172623001162        1.00824531401657
O           -0.93991582358360       -6.15771054023142        0.77155820927634
C           -1.45951043972244       -7.08592016378441        1.70020291361436
C           -1.05433078751965       -8.46951011250702        1.26808496004623
C           -1.93726481743926       -9.53664988982474        1.36849241563317
C           -1.55334184169148      -10.80735851894378        0.98938750776548
C           -0.27430196009754      -11.04963567575839        0.48712530061877
C            0.18127442292447      -12.36967053121221        0.06897695750024
C           -0.49236717068847      -13.51011954812163        0.15965257736063
C            0.60226901733288       -9.96788063277967        0.38248184634197
C            0.22272766948710       -8.69985579865087        0.77231770910589
C           -1.75621786649385       -4.27390408308577        2.09494071603294
C           -1.82184169921918       -2.89302745336316        2.25855833365719
C           -1.25805151868022       -2.01822816859864        1.35365684993656
C           -0.63187133369416       -2.56607944184749        0.24337371954205
C           -0.98779184000206        0.26278313855601       -0.97294499289122
C           -2.27782517451640       -0.30418701281186       -0.89410751220211
N           -3.32934585518268       -0.76221881591006       -0.89098724432443
C           -0.84448116916986        1.64890466929150       -1.16747562274547
N           -1.96443373951917        2.47900396937102       -1.13259483511732
C           -2.33722932655897        3.37264118115047       -2.12176875779471
C           -1.75564380679200        3.61862712037011       -3.35463050773901
C           -2.35423591302994        4.55608825802428       -4.17564884556658
C           -3.51191482837998        5.22477839473974       -3.78719090556537
C           -4.11295727251878        4.96200154510368       -2.57170593651229
C           -3.52602494717134        4.02625087748521       -1.73072652476289
C           -3.87307540315076        3.50179286898245       -0.44030805225357
C           -4.91918669335735        3.77828735794967        0.44858938877112
O           -5.82292576524415        4.71324187816314        0.04944676169001
C           -6.88977385876480        5.03662824961362        0.91176443078862
C           -7.88188370977051        3.91944922710695        1.12552720913279
C           -8.70346399447127        3.92453292030471        2.24695565642545
C           -9.62829184712408        2.92071862835333        2.44703396237300
C           -9.75494406175055        1.87222831970048        1.53422458087789
C          -10.71255205668021        0.78569401465191        1.70026698474930
C          -11.67508112284029        0.70851275618963        2.61130110684507
C           -8.91906449816893        1.87289424835527        0.41687149787997
C           -8.00241929197200        2.88409010399364        0.20913038188379
C           -4.94128126594545        3.09378323085940        1.65516661391343
C           -3.94299049113408        2.17887561070937        1.97574412678161
C           -2.90253875393058        1.89516050543044        1.11584480234370
C           -2.89180717631240        2.54889562078312       -0.10725912846933
C            0.41231409112575        2.19031297818760       -1.39501001122604
C            7.69227104864994        4.61704083086674        1.04157299985016
C            7.76124431532798        5.18856049113434        2.29614514524941
H           10.55121978557290        4.64424751722481        5.34268842401859
H            9.63901571399241        5.81985553475411        6.39777492308384
H            7.96094941134012        6.14047228545887        4.69904723469032
H           10.44741236989401        3.52912163145346        3.49216887160673
H           10.31407079484255        2.50804339308758        1.27782331937570
H            9.17484877866213        3.59669571566201       -1.40045265453503
H            8.93417545920622        1.99237302360568       -0.67788008339743
H            7.33741300838227        1.41954625924511        0.89645724354555
H            5.43525907250647        0.19936293290971        1.76263546759737
H            3.21848133501084        0.32792020574300        0.70551881400215
H            6.17423237104309        4.25470474983288       -3.26795227263489
H            4.80198846490119        5.24831589177805       -5.08225503614919
H            2.43849463362622        4.65003036483050       -5.32318177332898
H            1.36047427767467        3.08300199171711       -3.76817359958790
H            2.27383257773453       -0.63520067925504       -1.21751080517792
H            1.50921015726806       -1.78876737873555       -3.21593389731873
H            2.22458642086583       -3.82957283203330       -4.38930710843379
H            1.67620860551833       -6.05112070186173       -3.51617561350059
H            0.35965486083421       -6.29652415771893       -1.42732607558553
H           -2.55440046633446       -7.00793377240301        1.75056771502874
H           -1.05136004303760       -6.88346314502529        2.70407050216587
H           -2.93565242465152       -9.37023162117460        1.74789713291250
H           -2.26033544394045      -11.61745371297694        1.07701997586794
H            1.18055702628095      -12.38558442806436       -0.34978574066018
H           -1.48575799610449      -13.57114760411908        0.56972124500258
H           -0.06600075940810      -14.43944870939633       -0.17723375034856
H            1.59790702958337      -10.12946629196493       -0.00646219420917
H            0.91287268423229       -7.87407161622582        0.68709556865073
H           -2.22325349900995       -4.90166237211632        2.83700604387677
H           -2.32945836144367       -2.49922628424154        3.12606929808813
H           -1.30491833948113       -0.95357764012622        1.51518752802358
H           -0.87366342873972        3.08531444545247       -3.67529547174307
H           -1.91669272066394        4.76894991175778       -5.13986088939297
H           -3.94942439457974        5.95131325554739       -4.45566553950631
H           -5.02028816330293        5.46091019966963       -2.27132461316959
H           -7.39106225234120        5.87669794521416        0.41536554462989
H           -6.50829035171471        5.39454878646176        1.87901485061923
H           -8.61347041563592        4.72448514037972        2.96923160375348
H          -10.24928033583929        2.94604040237074        3.32896417139877
H          -10.60615724434277       -0.01789533756486        0.98149054605940
H          -11.84705781135932        1.47667483538143        3.34577497420171
H          -12.34029098891132       -0.13694345990649        2.65207217090202
H           -8.99355262736891        1.06955001830877       -0.30196430828258
H           -7.36827989566784        2.86789169295950       -0.66495649586686
H           -5.73617771592293        3.25682263511874        2.36490095884237
H           -3.98997711661382        1.67828426949236        2.93100646285251
H           -2.13006110074735        1.19647135211354        1.39422434543812
H            0.51606384776969        3.25751007083538       -1.51329681842800
H            6.91965794152366        4.91907263660534        0.34962351823957
H            7.03679347202134        5.93965766885866        2.57764863577766
