  127
       -199.29044768
 C          4.9862492171        0.4073380237       -4.0052760300
 C          5.0058951925        1.4268996830       -3.1572628501
 C          6.0128333375        1.6434322286       -2.1241855000
 C          7.3001387569        1.1162296967       -2.2145787490
 C          8.1976532837        1.2617469251       -1.1759905528
 C          7.8392615692        1.9387949929       -0.0172005070
 C          8.7146419964        1.8971487725        1.2077615285
 O          8.3965570119        0.7574692519        2.0135307354
 C          7.0560427030        0.7120589974        2.3437518331
 C          6.5451205849        1.4741364577        3.3824922952
 C          5.1788356084        1.5041744569        3.6426981731
 C          4.2749035691        0.8303427947        2.8435319510
 C          4.7797749367        0.0727436285        1.7967451167
 C          6.1685856089       -0.0484377581        1.5804076251
 C          6.3397305217       -0.9566383441        0.4812528301
 C          7.4555354211       -1.4906928547       -0.1478615496
 C          7.2640040879       -2.3231774639       -1.2321411269
 C          5.9833307909       -2.6143006049       -1.6943416891
 C          4.8588237825       -2.1182274646       -1.0623966214
 C          5.0444727134       -1.3103568394        0.0480036097
 N          4.1080163867       -0.6851864353        0.8544409019
 C          2.7287465591       -0.7026872662        0.6547470074
 C          2.0510774929       -1.9132678582        0.5159224783
 C          0.6811800611       -1.9175138518        0.3152373376
 N         -0.0323674896       -3.1147077828        0.2233407160
 C          0.0648669888       -4.0535472740       -0.7895297644
 C          1.0113535048       -4.1740158412       -1.7925773408
 C          0.8638353945       -5.2116749180       -2.6950613149
 C         -0.2021052064       -6.1026126981       -2.6069555550
 C         -1.1579246258       -5.9765907583       -1.6172793278
 C         -1.0295311531       -4.9422927295       -0.7008051075
 C         -1.8160612292       -4.5146000233        0.4225919931
 C         -3.0257409780       -4.9517092417        0.9722543013
 O         -3.6979011670       -5.9458414170        0.3227046795
 C         -5.1176137004       -5.8951984553        0.3740122175
 C         -5.6404286768       -4.4906138695        0.1984613885
 C         -6.6902335810       -4.0088570426        0.9682858229
 C         -7.0478408435       -2.6755316699        0.9075688715
 C         -6.3364286833       -1.7813354670        0.1093360153
 C         -6.6227771925       -0.3510966181        0.1817842098
 C         -5.7149241343        0.5971783761       -0.0092033726
 C         -5.3302698868       -2.2849915448       -0.7138581121
 C         -4.9995758713       -3.6228323510       -0.6796162548
 C         -3.4817335782       -4.3143475167        2.1188665480
 C         -2.7881042705       -3.2472670645        2.6764034375
 C         -1.6325107633       -2.7536869886        2.1060457455
 C         -1.1659102627       -3.3923305448        0.9678410883
 C         -0.0205933106       -0.7026165040        0.1951091777
 C         -1.3682159423       -0.7258208525       -0.2218329608
 N         -2.4354924629       -0.7543284858       -0.6415981832
 C          0.6621965740        0.5158041201        0.3561936359
 N         -0.0012872147        1.7296185493        0.2144131685
 C          0.4243986982        2.7749095025       -0.5929000949
 C          1.5407458354        2.8669224594       -1.4094213539
 C          1.7127629257        4.0307094925       -2.1369767689
 C          0.7925564274        5.0728679566       -2.0691552215
 C         -0.3399620389        4.9711770667       -1.2855041437
 C         -0.5309289989        3.8127793978       -0.5445266088
 C         -1.5764707447        3.3662057254        0.3322820499
 C         -2.7693194789        3.9603734927        0.7626318348
 O         -3.0373089361        5.2025434499        0.2780002638
 C         -4.2560277517        5.8200927135        0.6297193640
 C         -5.4788913547        5.1062766369        0.1074121760
 C         -5.4039256217        4.3166330005       -1.0326589021
 C         -6.5168914328        3.6425141442       -1.4943066800
 C         -7.7415786885        3.7496314928       -0.8357936503
 C         -8.9276618691        3.0183113572       -1.2692031322
 C         -8.9216810803        1.8966896152       -1.9778665447
 C         -7.8176284217        4.5796606520        0.2832049594
 C         -6.7004675970        5.2386345976        0.7559207760
 C         -3.5655065493        3.2437033172        1.6444524020
 C         -3.1743316622        1.9893448865        2.1016516551
 C         -2.0004664706        1.3897805863        1.6936247050
 C         -1.2189500735        2.0796818727        0.7782453639
 C          2.0291738409        0.4991865547        0.6028723156
 C          6.5823697497        2.5312457574        0.0460291314
 C          5.6859603754        2.3925557923       -0.9942188376
 H          5.7421067414       -0.3593661717       -3.9957114623
 H          4.2006095414        0.2941605710       -4.7327448163
 H          4.2024523452        2.1529370931       -3.1787865983
 H          7.5968249856        0.5807295072       -3.1030907173
 H          9.1845190021        0.8297622993       -1.2559706741
 H          9.7676620586        1.7701383571        0.9489273026
 H          8.5921057732        2.8150929195        1.7999465023
 H          7.2225324410        2.0578586208        3.9875016358
 H          4.8151542132        2.0944092170        4.4703976703
 H          3.2146167662        0.8920190261        3.0347021941
 H          8.4428898085       -1.2555945104        0.2155065500
 H          8.1169660351       -2.7502278290       -1.7381838224
 H          5.8633539111       -3.2491225883       -2.5599739900
 H          3.8717234211       -2.3481865294       -1.4325049576
 H          2.5823223505       -2.8478293469        0.6039348782
 H          1.8342613922       -3.4797674306       -1.8748504336
 H          1.5909435605       -5.3312954522       -3.4846954336
 H         -0.2810415227       -6.9014219414       -3.3292852017
 H         -1.9909587110       -6.6576600911       -1.5457834106
 H         -5.4866073617       -6.3253933976        1.3155144865
 H         -5.4413040404       -6.5452769474       -0.4467235054
 H         -7.2174078930       -4.6776598762        1.6353882072
 H         -7.8557260571       -2.3100548668        1.5261864742
 H         -7.6346768676       -0.0848388001        0.4643578497
 H         -4.6904715294        0.3658593902       -0.2481018831
 H         -5.9599563953        1.6411571151        0.0854347755
 H         -4.7932769320       -1.6207532091       -1.3706052238
 H         -4.2070920233       -3.9948708232       -1.3126149472
 H         -4.3979393240       -4.6358548349        2.5869944348
 H         -3.1791828648       -2.7839302215        3.5695515176
 H         -1.1118327463       -1.9109603228        2.5351541085
 H          2.2461082512        2.0531787140       -1.4943716004
 H          2.5777952686        4.1328945328       -2.7763662582
 H          0.9649509605        5.9662342915       -2.6506200099
 H         -1.0706178637        5.7626993775       -1.2437812914
 H         -4.1910713469        6.8177287344        0.1787407704
 H         -4.3253191324        5.9448140717        1.7197253726
 H         -4.4614375678        4.2207075633       -1.5515512834
 H         -6.4371042600        3.0320677567       -2.3802936558
 H         -9.8702165779        3.4350370396       -0.9349319680
 H         -8.0094611474        1.4198854854       -2.2936221191
 H         -9.8365349949        1.3987667742       -2.2503992841
 H         -8.7603745780        4.6877081233        0.8006132787
 H         -6.7735179031        5.8600298249        1.6377749023
 H         -4.5036769700        3.6463854839        1.9901079788
 H         -3.8170356551        1.4689720357        2.7950259951
 H         -1.7196379978        0.4216477545        2.0753144648
 H          2.5568629550        1.4298128854        0.7384752453
 H          6.2970017954        3.0908129751        0.9260013857
 H          4.7078372465        2.8475461900       -0.9197665430
