127
 energy: -199.201600301465 gnorm: 0.000122637256 xtb: 6.7.1 (edcfbbe)
C            4.89288141363035        0.29798705543123       -3.88531487659084
C            4.95737830220492        1.35501246383862       -3.08642744308520
C            5.97407288163047        1.57556464130874       -2.06376961673161
C            7.24246901871673        1.00179347324090       -2.13660770364506
C            8.14868612141207        1.15754726298472       -1.10699328449929
C            7.81732921372260        1.89040677649832        0.02574498022427
C            8.69771565520994        1.87104036626669        1.24769616954020
O            8.36739062024335        0.76109229026077        2.09005418067414
C            7.02066553415146        0.72465594823664        2.39509383691015
C            6.48851280347555        1.52013609593641        3.39998808069366
C            5.11495947147922        1.56345669910947        3.62963755558957
C            4.22702809992920        0.87676397532526        2.82344765146941
C            4.75100373563401        0.08803061003268        1.80716830442424
C            6.15005544564620       -0.05758818165890        1.63656484646402
C            6.33730814242921       -0.99782045849133        0.57195342794772
C            7.45744921931184       -1.58120304648473       -0.00203503371246
C            7.27994467438454       -2.43562285850329       -1.07324047777789
C            6.00785888466137       -2.70006167117908       -1.57956610330990
C            4.87701529477765       -2.15548441820906       -1.00223884257161
C            5.04338287295709       -1.32565323218830        0.09756823706511
N            4.09715693468100       -0.66078353764975        0.85097340971433
C            2.72581214489700       -0.66283303734069        0.62243369557420
C            2.02116513439810       -1.88035022124371        0.45639652644943
C            0.67263298885583       -1.87793989717385        0.26419206747152
N           -0.05290128220621       -3.07049381487993        0.12725822883431
C            0.05498688296413       -3.98713773246770       -0.89251138411588
C            0.99320554350363       -4.06789485454928       -1.91200589646884
C            0.86079999680879       -5.09317687980052       -2.82796038316973
C           -0.18052573664779       -6.01579890785106       -2.73852597757835
C           -1.12778345423512       -5.93264191292077       -1.73428838705935
C           -1.01555747237771       -4.91068661568881       -0.80391490312005
C           -1.79710984119209       -4.51474031420902        0.33432330023082
C           -2.99998410483055       -4.96544783023587        0.88095097642793
O           -3.67001914585232       -5.95354354508309        0.22956294262932
C           -5.09199288161548       -5.90317947083105        0.27837698850690
C           -5.60630512376825       -4.49170003155860        0.13458285508397
C           -6.64374000474712       -4.01505476241362        0.92422230959274
C           -6.98094307494599       -2.67525079655169        0.89992530225353
C           -6.25957937037234       -1.77119298756110        0.12129194066829
C           -6.51715606441044       -0.33890969759954        0.23750288590655
C           -5.59401972344217        0.59529234206343        0.04835459697202
C           -5.26916471384916       -2.26847771954872       -0.72514393323632
C           -4.96135672885504       -3.61192258715957       -0.72931748166382
C           -3.45864553600061       -4.33878349129910        2.04085437339676
C           -2.77843725800294       -3.26692388463629        2.60192696353307
C           -1.62815961997999       -2.75749741105019        2.03043616116461
C           -1.15687031242232       -3.38569899728385        0.88594897749723
C           -0.07112660016142       -0.63743341147445        0.14317537196442
C           -1.35859710520626       -0.63957920330557       -0.33750427982727
N           -2.45207462602394       -0.65433597315828       -0.73583855460060
C            0.67126029063718        0.59298997056357        0.33910359707387
N            0.00167145511686        1.81132767316624        0.18452808973858
C            0.40551817786274        2.83812079332584       -0.64072222403553
C            1.51567261017759        2.92277868432861       -1.47195393214712
C            1.67899827562382        4.07690096060157       -2.21273820835122
C            0.75934612069319        5.12270815349417       -2.14164420329863
C           -0.36423785854044        5.03253250121449       -1.34207699715799
C           -0.54991185953167        3.88216280400781       -0.58897818428696
C           -1.57826853384555        3.44211149695291        0.30957936381009
C           -2.76971554952343        4.02594544615540        0.75180952699817
O           -3.06624476897255        5.25537558312242        0.25966823603122
C           -4.29498014627420        5.85480932906820        0.61225890665059
C           -5.50672121835960        5.09613545825292        0.12847750499136
C           -5.43455599091948        4.30073147717985       -1.00792513518501
C           -6.53440068613835        3.58258858046921       -1.43307540051379
C           -7.74312361360853        3.64963790611592       -0.74057795961549
C           -8.91357457141260        2.87250077830593       -1.13463938997427
C           -8.88853822943391        1.75187479257988       -1.84446546011469
C           -7.81814901996348        4.48495431250949        0.37456055840083
C           -6.71342938979197        5.18866839343408        0.81072823560140
C           -3.54411969527874        3.30760405208873        1.65944927402284
C           -3.13684338137062        2.06018258409689        2.11903024371718
C           -1.96251354859011        1.46902539022235        1.69688308020944
C           -1.19915485722226        2.16172896320581        0.76540200282691
C            2.01392683866306        0.55921681829307        0.58014225384673
C            6.57987985007290        2.52443638089406        0.07022650029984
C            5.67567039415425        2.37681694746665       -0.96182254101390
H            5.61507673917798       -0.49946429494003       -3.83780685543986
H            4.10192771714049        0.18412450106091       -4.60689130584375
H            4.18590030081632        2.11325913009830       -3.14205999678039
H            7.51729805459316        0.42224047826559       -3.00440957690966
H            9.12034932519785        0.69028270471665       -1.17278206052039
H            9.74776589532829        1.72131309493595        0.98869475644394
H            8.59090376934206        2.80811003745005        1.81256428779039
H            7.15530729570945        2.11775369320256        4.00339375115583
H            4.73694007615866        2.17323890655367        4.43629812476304
H            3.16266899077760        0.94597505335437        2.98603222471195
H            8.43852718352011       -1.36647522133620        0.39064884314555
H            8.13788922824939       -2.90048809140331       -1.53601960971429
H            5.90323311535133       -3.35011861947609       -2.43578553760335
H            3.89737783697900       -2.36102766926810       -1.40413668386227
H            2.55024289811201       -2.81679999367935        0.55005683738272
H            1.79231903336923       -3.34664920607765       -1.99056397329178
H            1.57741542203102       -5.18154736463761       -3.63097660070007
H           -0.24753587763387       -6.80497812374058       -3.47251968367461
H           -1.94089925039319       -6.63785919886785       -1.66589286596045
H           -5.46255835823108       -6.35399003503644        1.20920824199549
H           -5.41337736426134       -6.53408321512254       -0.55782499105233
H           -7.17542922536625       -4.69279031350031        1.57871493513955
H           -7.77868042149967       -2.31373042270936        1.53388779809292
H           -7.51673871021246       -0.06173233258356        0.55250774753859
H           -4.58029977842971        0.34905155974774       -0.22083903192562
H           -5.81626277073355        1.64092844043809        0.17658595425528
H           -4.72067850913758       -1.59569862536812       -1.36296542676199
H           -4.18154797729540       -3.97929475508363       -1.38055989073503
H           -4.36546980893417       -4.68157499226359        2.51221260084155
H           -3.17247602712378       -2.81390645628086        3.49883025456690
H           -1.11293169009453       -1.91158404213165        2.45733147121152
H            2.21625715965092        2.10481070347109       -1.55019720840522
H            2.53457255409051        4.17350001799484       -2.86550666549549
H            0.92649442821177        6.01054057385878       -2.73315235581436
H           -1.08997062032405        5.82877986874186       -1.29861055633663
H           -4.25929707961239        6.84008916840237        0.13208133518508
H           -4.35108843112383        6.00879741071511        1.69913160428875
H           -4.50393133966441        4.23394386264187       -1.55218166147576
H           -6.45611752741807        2.96740921945383       -2.31575392654928
H           -9.85984284983622        3.25306877716588       -0.76896018831224
H           -7.97008828075640        1.31022454182554       -2.19168213822332
H           -9.79257985118213        1.21965440362036       -2.08676932141685
H           -8.74910396029967        4.56220003875956        0.91826615050635
H           -6.78479898387970        5.81403088107810        1.69009424744991
H           -4.47805133114677        3.70806637502896        2.01903275923246
H           -3.76501646610155        1.53992491531747        2.82560174543249
H           -1.66350809592402        0.50416541330079        2.07120225522917
H            2.55857171948332        1.48156051214287        0.71294156015517
H            6.31519718010637        3.12325554781297        0.93068674209915
H            4.71199102710422        2.86346772112137       -0.90104052751810
