127
 energy: -199.290583898983 gnorm: 0.000055706298 xtb: 6.7.1 (edcfbbe)
C            4.88928274286362        0.36128334898238       -3.90371739216805
C            4.95704295769466        1.41714965702130       -3.10379105817496
C            5.97898448927557        1.63365388105067       -2.08495079842899
C            7.25103450813631        1.07105929583712       -2.17543134375521
C            8.16314300857425        1.21860292366495       -1.14977266978746
C            7.83353275114233        1.93076773518031       -0.00352193520779
C            8.71956263617106        1.89381357292611        1.21406188699810
O            8.39292110354214        0.77028356733476        2.03920807575943
C            7.04989454521751        0.73567960892873        2.36103203471395
C            6.53299904756185        1.51902293211948        3.38062598868313
C            5.16455617180955        1.55782349475334        3.62819041554375
C            4.26504450709532        0.87359657422922        2.83285892216193
C            4.77578217983173        0.09590549035341        1.80364298091233
C            6.16602403498270       -0.03611556448009        1.60496615592914
C            6.34493570858981       -0.96796084915452        0.52728033537003
C            7.46598579387446       -1.52275906177996       -0.07398566110831
C            7.28414350118209       -2.37885893532069       -1.14137386179780
C            6.00787006867917       -2.67173077000454       -1.61448163828943
C            4.87800710968581       -2.15404891783607       -1.00978504834667
C            5.05307971843387       -1.32314288032909        0.08533482958211
N            4.11030736044288       -0.67583334753032        0.86732376600960
C            2.73374101223810       -0.68977731424069        0.65325131198541
C            2.05401530612600       -1.89859850275774        0.50717364508886
C            0.68637405231875       -1.89982329011915        0.29276260210960
N           -0.02562842059893       -3.09698167413284        0.18353779297239
C            0.07565051558106       -4.01879402805832       -0.84413237717635
C            1.02107220727579       -4.11661932458089       -1.85066830723163
C            0.87835994370527       -5.14006041649853       -2.76992626234908
C           -0.18195711511932       -6.03893757718971       -2.69462803196377
C           -1.13695503068961       -5.93505335018460       -1.70161163000321
C           -1.01344908110025       -4.91514877499696       -0.76841939691660
C           -1.80155487833115       -4.50884040795746        0.36169782677865
C           -3.00856102051249       -4.96093481886104        0.90491154667164
O           -3.67432738274859       -5.94997442619131        0.24100713024518
C           -5.09442484129183       -5.90819298122334        0.29031800636781
C           -5.62518321692013       -4.50385567435332        0.13880797445572
C           -6.67902377287027       -4.04226645449170        0.91546078755289
C           -7.04306133125097       -2.70980480859023        0.87973675985237
C           -6.33423754410158       -1.79671425478352        0.10068235194766
C           -6.62742741787001       -0.36972947424488        0.20151428092049
C           -5.72637905832106        0.58760846658216        0.02373028708595
C           -5.32439827915933       -2.27959056479249       -0.73048496307745
C           -4.98743648252202       -3.61626232617767       -0.72160656839458
C           -3.46883277475463       -4.34216262223153        2.05996494414430
C           -2.78283143605148       -3.27741995644723        2.63134961651545
C           -1.62998412500637       -2.76901443765082        2.06843771267982
C           -1.15790070619664       -3.39062707704497        0.92312530961391
C           -0.01359121944601       -0.68412986697799        0.17459265597331
C           -1.36048310781911       -0.70407901907748       -0.24487066207384
N           -2.42825161007687       -0.72998665208504       -0.66358210437653
C            0.67071147928899        0.53253924164171        0.34310661884174
N            0.00745694454682        1.74708115149085        0.20544220050543
C            0.43038750274507        2.79569072220820       -0.59858645067466
C            1.54723381476299        2.89288257536860       -1.41374641189628
C            1.71676779516956        4.05937650643996       -2.13754434248481
C            0.79381761831949        5.09895364038344       -2.06706861583264
C           -0.33900093943886        4.99210629666737       -1.28445757520460
C           -0.52775559606906        3.83091405052814       -0.54728607887153
C           -1.57177286096163        3.37936955348767        0.32888419040332
C           -2.76623479832477        3.96845229202423        0.76184674354449
O           -3.04139678051872        5.20916323791006        0.27749732831236
C           -4.26166286915312        5.82135586726118        0.63346711146399
C           -5.48396542027597        5.09803672443345        0.12301601259340
C           -5.41359937892568        4.30586852758216       -1.01562839754382
C           -6.52583466793068        3.62275774048609       -1.46559887558189
C           -7.74538140299351        3.72289301955628       -0.79646426716165
C           -8.93028871569975        2.98206615521738       -1.21660701241285
C           -8.92408964974120        1.86128004491718       -1.92656616046103
C           -7.81721446247297        4.55520624928766        0.32112490509199
C           -6.70060591641841        5.22335296904265        0.78209244173840
C           -3.55745465355721        3.24837930156981        1.64540092802530
C           -3.16176520802268        1.99441201909464        2.09974238925043
C           -1.98772813116187        1.39855289762786        1.68699842922680
C           -1.21023134817343        2.09283867075944        0.77153874298583
C            2.03653053907615        0.51351227820635        0.59497699169621
C            6.59261028885212        2.55613606877829        0.05816698059425
C            5.68261956814624        2.41752675423920       -0.97029590564695
H            5.61193976371478       -0.43601405178373       -3.85975651139770
H            4.09627282525227        0.24857198801329       -4.62325382598101
H            4.18593671568657        2.17601508649692       -3.15499107310256
H            7.52391981240544        0.50701442285056       -3.05397664604930
H            9.13817939582125        0.76073672385135       -1.22974706583149
H            9.76846166094979        1.74862383478436        0.94805408007575
H            8.61492948830785        2.82172317186356        1.79403010615277
H            7.20699765813359        2.11196384611353        3.98042823380259
H            4.79562456791949        2.16363130696348        4.44220588944484
H            3.20363545661448        0.94251780406687        3.01484089627432
H            8.44955605856435       -1.28549496866811        0.29820514741429
H            8.14094787693563       -2.82344930706304       -1.62531898987019
H            5.89538611420620       -3.32569094878867       -2.46683865240449
H            3.89529539866395       -2.38649333183582       -1.38951222929298
H            2.58125500741769       -2.83497401337781        0.59948856463754
H            1.83864360702906       -3.41489662708678       -1.92326489712705
H            1.60438793781652       -5.24184535382979       -3.56306186750904
H           -0.25741060497431       -6.82601072155182       -3.43010516745124
H           -1.96592578829065       -6.62206447426817       -1.64040023291735
H           -5.46258798303864       -6.35698932992914        1.22345193950716
H           -5.41286830431350       -6.54564122544276       -0.54233013223722
H           -7.20398873901201       -4.72639607972351        1.56862141900613
H           -7.85394374379116       -2.36038446329616        1.50369682717604
H           -7.63907912467844       -0.11464981584472        0.49508488219916
H           -4.70161793171762        0.36782331828429       -0.22443794337500
H           -5.97733452276913        1.62792252634422        0.14023284601768
H           -4.78922521857343       -1.60042337134589       -1.37330953838209
H           -4.19247889975718       -3.97217304831184       -1.36076422232358
H           -4.38305861845051       -4.67595421151509        2.52337417188642
H           -3.17796774048570       -2.82773982862056        3.52968138905399
H           -1.11580374726662       -1.92762940403640        2.50788505626573
H            2.25474045562404        2.08116784206669       -1.49984638433809
H            2.58209675157523        4.16602017242992       -2.77586716325685
H            0.96459836552628        5.99472987543005       -2.64528640723909
H           -1.07132660624698        5.78196970600798       -1.24051610608414
H           -4.20521982011747        6.81703346855766        0.17705412443856
H           -4.32472840350516        5.95112684195965        1.72330188272839
H           -4.47504401895556        4.21503734475641       -1.54251521991890
H           -6.44936986281622        3.00999463110311       -2.35029273421376
H           -9.87222559169037        3.39118154965393       -0.87125903580197
H           -8.01217472142140        1.39210470694067       -2.25451062189500
H           -9.83839583666352        1.35709716746981       -2.18934513249140
H           -8.75606243710550        4.65803212241512        0.84672893163369
H           -6.77033577521798        5.84682120772072        1.66289920745337
H           -4.49552326641688        3.64811315256755        1.99465024749205
H           -3.80106308123307        1.47147735862619        2.79433409413784
H           -1.70298868464949        0.43028752637828        2.06558390809336
H            2.56500434054232        1.44353483902682        0.73126684752582
H            6.32983247812532        3.14120785606229        0.92852589206014
H            4.71669034700323        2.89799849086475       -0.89672001450085
