  62
        -92.74787601
 C         -4.5645714971        0.1070431255       -2.7107524228
 C         -4.6533932822        0.7523237175       -1.3245415494
 C         -4.5590832391        2.2773185194       -1.4359895547
 C         -5.9161865218        0.3336558449       -0.6051193637
 C         -7.2284735923        0.5458655474       -0.9680836985
 C         -8.2374204401        0.0641309634       -0.1443451847
 C         -7.9350671272       -0.6178262375        1.0239961695
 C         -6.6185196616       -0.8345909804        1.3970275541
 C         -5.6100536237       -0.3561949029        0.5771046271
 C         -4.1638641489       -0.4312647987        0.7047420160
 C         -3.3638506454       -0.9980919445        1.6832006646
 C         -1.9886199615       -0.9202492998        1.5469439573
 C         -1.4082103501       -0.2824510939        0.4528571629
 C          0.0617037383       -0.2027878858        0.3311956589
 C          0.8083990337       -1.3666793883        0.0975159347
 C          0.1862277592       -2.6327420423       -0.0626238239
 C          0.9206579367       -3.7597704071       -0.2672153044
 C          2.3270396579       -3.6914601877       -0.3187774927
 C          2.9614584170       -2.4943369926       -0.1928934588
 C          2.2322724754       -1.2905971444       -0.0041998076
 C          2.8707971363       -0.0467626407        0.1009359138
 C          4.3411864419        0.0342787702       -0.0157128554
 C          4.9661409876       -0.2023038046       -1.2393207583
 C          6.3389932665       -0.1303162213       -1.3543462417
 C          7.1117748051        0.1781815920       -0.2332259472
 C          8.5178482997        0.2466396383       -0.3444059318
 N          9.6601421076        0.3108562691       -0.4349073276
 C          6.4947392114        0.4160562548        0.9966673178
 C          5.1205956352        0.3453407549        1.0972347049
 C          2.1245489484        1.1206083313        0.3150485438
 C          2.7380979173        2.3991316270        0.3871939787
 C          2.0043330675        3.5223371882        0.6141796580
 C          0.6090075484        3.4362112790        0.7903998666
 C         -0.0201951902        2.2325523050        0.7073692478
 C          0.7033237208        1.0392236359        0.4456725237
 C         -2.2187698509        0.2883636639       -0.5295893922
 C         -3.5863007921        0.2105767460       -0.4006612385
 H         -4.6384402395       -0.9753088184       -2.6265697174
 H         -3.6167290625        0.3551196748       -3.1830717991
 H         -5.3735260746        0.4618331344       -3.3451804997
 H         -4.6236598834        2.7307018641       -0.4488480916
 H         -3.6134745135        2.5650580273       -1.8900615630
 H         -5.3712806602        2.6627311898       -2.0479421932
 H         -7.4760170980        1.0753109876       -1.8767638454
 H         -9.2703424158        0.2231851765       -0.4171773704
 H         -8.7359528954       -0.9834749968        1.6500956161
 H         -6.3851616781       -1.3666058472        2.3073139971
 H         -3.8007418765       -1.4910811564        2.5388738515
 H         -1.3458856617       -1.3504739078        2.3019254812
 H         -0.8913287020       -2.6845764494       -0.0215456506
 H          0.4325469317       -4.7155428504       -0.3873954350
 H          2.8966322783       -4.5978198800       -0.4616507785
 H          4.0397028527       -2.4457585925       -0.2338333255
 H          4.3628418108       -0.4397496761       -2.1036645809
 H          6.8227708774       -0.3108232841       -2.3033421246
 H          7.0986732064        0.6532615656        1.8605042294
 H          4.6379120753        0.5233324504        2.0468144310
 H          3.8077410718        2.4682686096        0.2533177374
 H          2.4861488590        4.4876106674        0.6641805447
 H          0.0440775227        4.3352911770        0.9871842598
 H         -1.0894076243        2.1667172503        0.8425892001
 H         -1.7608957812        0.7766208338       -1.3781609923
  62
        -92.74777751
 C         -4.4532360507        0.1373476040       -2.7386660406
 C         -4.5856531500        0.7715617532       -1.3509065823
 C         -4.4732995140        2.2964920240       -1.4454184601
 C         -5.8762087451        0.3581451812       -0.6796269952
 C         -7.1728186473        0.5864466856       -1.0863104478
 C         -8.2145330312        0.1083168360       -0.3023158713
 C         -7.9596610939       -0.5862466456        0.8698920521
 C         -6.6591322679       -0.8196987357        1.2865648756
 C         -5.6179477067       -0.3444210549        0.5066743658
 C         -4.1777313779       -0.4339662124        0.6842181199
 C         -3.4162468444       -1.0156324764        1.6845383379
 C         -2.0360823368       -0.9497503835        1.5963034084
 C         -1.4133917170       -0.3089933218        0.5279182800
 C          0.0592375795       -0.2364675425        0.4407096275
 C          0.8086784953       -1.3986203809        0.2079274266
 C          0.1919246778       -2.6690023184        0.0616954005
 C          0.9308490405       -3.7939907714       -0.1382277516
 C          2.3363663405       -3.7185744511       -0.2024745265
 C          2.9649743016       -2.5164797886       -0.0953457407
 C          2.2309688595       -1.3152327665        0.0901574905
 C          2.8647476279       -0.0671504860        0.1748502372
 C          4.3268960551        0.0253563129       -0.0095370914
 C          4.8896011460       -0.2358394075       -1.2582830125
 C          6.2519416550       -0.1397655318       -1.4515344361
 C          7.0783041836        0.2180208789       -0.3844729868
 C          8.4734165878        0.3200080509       -0.5769028386
 N          9.6068544001        0.4044071724       -0.7346030329
 C          6.5248782523        0.4751942547        0.8711905357
 C          5.1600181377        0.3801476794        1.0502123388
 C          2.1175683495        1.0955477813        0.4128718736
 C          2.7238784116        2.3775726893        0.4849288877
 C          1.9881018343        3.4936961662        0.7393658202
 C          0.5968210474        3.3978941042        0.9402650818
 C         -0.0270477250        2.1919727615        0.8508092913
 C          0.6989443993        1.0058529789        0.5641356897
 C         -2.1855027654        0.2778615978       -0.4763243518
 C         -3.5568847778        0.2118517155       -0.3951895317
 H         -4.5338749020       -0.9453037882       -2.6662365459
 H         -3.4892054273        0.3854669363       -3.1767859231
 H         -5.2390513773        0.5007484279       -3.3967136724
 H         -4.5737200434        2.7423882881       -0.4578297454
 H         -3.5076438449        2.5793219031       -1.8585358171
 H         -5.2564758918        2.6939923485       -2.0865591242
 H         -7.3831573405        1.1263054557       -1.9982769472
 H         -9.2357653568        0.2798322068       -0.6097637843
 H         -8.7853512691       -0.9488501003        1.4645354398
 H         -6.4629995157       -1.3607606628        2.2003690523
 H         -3.8864712248       -1.5111814605        2.5208306048
 H         -1.4239535411       -1.3906746066        2.3703184412
 H         -0.8850102642       -2.7264991084        0.1120546099
 H          0.4468457672       -4.7533186229       -0.2463548054
 H          2.9097675415       -4.6231587632       -0.3414669124
 H          4.0427269563       -2.4625054170       -0.1437194723
 H          4.2445922507       -0.5082496151       -2.0810283708
 H          6.6863188983       -0.3381628334       -2.4204532335
 H          7.1704717349        0.7478897974        1.6932046283
 H          4.7271328159        0.5755697847        2.0205607095
 H          3.7901438410        2.4562119953        0.3319899035
 H          2.4659595596        4.4606861401        0.7939216085
 H          0.0310827953        4.2906348282        1.1621491660
 H         -1.0933005639        2.1178806727        1.0036536986
 H         -1.6942355597        0.7696598491       -1.3039222994
  62
        -92.74771994
 C         -4.5283517084       -1.2210630836       -2.4614110556
 C         -4.6509030057       -0.0028740944       -1.5412988136
 C         -4.5894098580        1.2933931009       -2.3556821893
 C         -5.9140193154       -0.0661302070       -0.7118018375
 C         -7.2252587661       -0.0925021097       -1.1347278796
 C         -8.2347160040       -0.1545759371       -0.1830530088
 C         -7.9338032095       -0.1884274328        1.1696523977
 C         -6.6183642990       -0.1610813541        1.6036167960
 C         -5.6094433419       -0.1002996711        0.6567930190
 C         -4.1637164477       -0.0674914272        0.8074877668
 C         -3.3659726920       -0.0808226818        1.9396243421
 C         -1.9906099226       -0.0462537766        1.7855350147
 C         -1.4101578233       -0.0073689190        0.5206765767
 C          0.0622741624        0.0122803268        0.3801679466
 C          0.7374071238       -1.1500224676       -0.0158458041
 C          0.0436518796       -2.3610382553       -0.2762909363
 C          0.7061293414       -3.4813939497       -0.6728928797
 C          2.1054805960       -3.4577435123       -0.8387138226
 C          2.8090997204       -2.3204766812       -0.5866674507
 C          2.1600885858       -1.1344244939       -0.1529543012
 C          2.8711254119        0.0424263991        0.1213413704
 C          4.3428795368        0.0541406708       -0.0091003074
 C          4.9546178098        0.7523644221       -1.0487246186
 C          6.3281681803        0.7601562285       -1.1788839973
 C          7.1143665196        0.0668478279       -0.2569972208
 C          8.5207268314        0.0683095531       -0.3847888353
 N          9.6632941788        0.0690188033       -0.4895148533
 C          6.5105144040       -0.6317174725        0.7901821454
 C          5.1357416179       -0.6361921948        0.9059421656
 C          2.1970777575        1.2055457715        0.5187445111
 C          2.8882466563        2.4071154905        0.8266560930
 C          2.2173098358        3.5307944192        1.1993194742
 C          0.8106153837        3.5249161842        1.2879022978
 C          0.1116569783        2.3887174576        1.0206755817
 C          0.7730135223        1.1906993341        0.6424994307
 C         -2.2170304654        0.0067203877       -0.6172134050
 C         -3.5849552667       -0.0185365673       -0.4692706744
 H         -5.3375452720       -1.2284150424       -3.1877789543
 H         -4.5767782298       -2.1387343638       -1.8787119782
 H         -3.5811829115       -1.1974426605       -2.9955271769
 H         -4.6782735996        2.1552893444       -1.6975111946
 H         -3.6440749780        1.3597912853       -2.8893866375
 H         -5.4010426771        1.3240473750       -3.0786612553
 H         -7.4714985868       -0.0664633692       -2.1863317025
 H         -9.2667595561       -0.1775026846       -0.5008149934
 H         -8.7349015943       -0.2377764462        1.8926648201
 H         -6.3861830830       -0.1883932631        2.6579531532
 H         -3.8040739811       -0.1187756114        2.9258328224
 H         -1.3485061968       -0.0579376491        2.6548172428
 H         -1.0291706062       -2.3739466086       -0.1531681582
 H          0.1656908467       -4.3954541386       -0.8693706372
 H          2.6145944018       -4.3516852032       -1.1675040963
 H          3.8812104136       -2.3058738926       -0.7180565858
 H          4.3408888717        1.2853380673       -1.7604047064
 H          6.8017718055        1.2955493821       -1.9886706809
 H          7.1248781733       -1.1645578337        1.5011128565
 H          4.6627828687       -1.1718426724        1.7161155074
 H          3.9666148813        2.4149466102        0.7631846387
 H          2.7580547260        4.4366508902        1.4302845856
 H          0.2951101779        4.4291207091        1.5754558838
 H         -0.9658229563        2.3779725618        1.0928345332
 H         -1.7566046093        0.0427138130       -1.5944423580
  62
        -92.74763429
 C         -4.6134189063       -1.4161574589       -2.3233845052
 C         -4.7282895684       -0.1291238663       -1.5004556007
 C         -4.7351698004        1.0962645780       -2.4192576626
 C         -5.9539838909       -0.1548079858       -0.6143085328
 C         -7.2814174385       -0.2353114159       -0.9755489348
 C         -8.2475374329       -0.2451857836        0.0220327573
 C         -7.8886035101       -0.1755050264        1.3591432844
 C         -6.5566271665       -0.0945060409        1.7312618921
 C         -5.5910417231       -0.0846471679        0.7385066126
 C         -4.1418758599       -0.0139295712        0.8229371233
 C         -3.2979399093        0.0620535299        1.9185624963
 C         -1.9319990857        0.1067008261        1.7034727567
 C         -1.4028743899        0.0736364883        0.4146454263
 C          0.0629561416        0.0921470758        0.2335786473
 C          0.7223134882       -1.0480094216       -0.2497493163
 C          0.0144973139       -2.2267303598       -0.6043707440
 C          0.6642815422       -3.3319895381       -1.0601189026
 C          2.0688200887       -3.3354730054       -1.1698881437
 C          2.7871470582       -2.2345386524       -0.8186309191
 C          2.1483039025       -1.0530373894       -0.3578617955
 C          2.8783080382        0.0807900345        0.0265127481
 C          4.3546141880        0.0551382470       -0.0165516681
 C          5.0384377894        0.0399980266       -1.2307403185
 C          6.4176275508        0.0075633484       -1.2609665991
 C          7.1364029490       -0.0143077331       -0.0644395516
 C          8.5476564808       -0.0541425571       -0.0873149687
 N          9.6943904020       -0.0881929937       -0.1043583157
 C          6.4598824108        0.0020399699        1.1567931020
 C          5.0812686628        0.0391178804        1.1732561909
 C          2.2186583501        1.2322869016        0.4789951204
 C          2.9262944445        2.4150258126        0.8198593029
 C          2.2725898831        3.5321892925        1.2398364022
 C          0.8667011386        3.5407935873        1.3324900393
 C          0.1506892036        2.4302861074        1.0069742128
 C          0.7930431114        1.2388757101        0.5789574600
 C         -2.2578507153        0.0040958786       -0.6861612223
 C         -3.6177959001       -0.0392032077       -0.4778291544
 H         -4.6111809477       -2.2834666342       -1.6661633398
 H         -3.6918906659       -1.4146154200       -2.9011595617
 H         -5.4535587834       -1.5028816709       -3.0082755787
 H         -4.8185045511        2.0072443675       -1.8301498052
 H         -3.8157563978        1.1397550392       -2.9985887767
 H         -5.5774816450        1.0486358267       -3.1053768233
 H         -7.5736403463       -0.2904844457       -2.0142583256
 H         -9.2916476583       -0.3085906432       -0.2472154321
 H         -8.6568204664       -0.1852546265        2.1185288397
 H         -6.2784402880       -0.0407647081        2.7733728033
 H         -3.6940228129        0.0818559276        2.9228473728
 H         -1.2541388476        0.1560729644        2.5438424500
 H         -1.0599690947       -2.2329253546       -0.5001658978
 H          0.1100553805       -4.2186762977       -1.3301646536
 H          2.5706940710       -4.2240300703       -1.5234031682
 H          3.8651620409       -2.2488557511       -0.8834843330
 H          4.4778242077        0.0595989414       -2.1540418130
 H          6.9477850760       -0.0021999486       -2.2020277845
 H          7.0217156096       -0.0153952501        2.0791852290
 H          4.5515620851        0.0488478599        2.1147729331
 H          4.0026108719        2.4189164402        0.7281572340
 H          2.8257012652        4.4244580813        1.4934031389
 H          0.3631419389        4.4405106478        1.6536286769
 H         -0.9278113617        2.4427245507        1.0580254702
 H         -1.8413496681       -0.0100609764       -1.6834480537
  62
        -92.74752978
 C         -4.5969452663       -0.9692025191       -2.5512542896
 C         -4.6727143194        0.1581506615       -1.5172956735
 C         -4.5873552176        1.5238914371       -2.2058661726
 C         -5.9257133263        0.0487183748       -0.6773207672
 C         -7.2428944728        0.1105890320       -1.0774607316
 C         -8.2402921023       -0.0122588595       -0.1191103491
 C         -7.9218942978       -0.1939796524        1.2176909059
 C         -6.6003405005       -0.2573722406        1.6286627401
 C         -5.6035669610       -0.1351901408        0.6751461143
 C         -4.1555856815       -0.1580092317        0.8042495233
 C         -3.3444166434       -0.3067460000        1.9168859812
 C         -1.9708353660       -0.2788291597        1.7472916455
 C         -1.4067131707       -0.1104052258        0.4859676749
 C          0.0660762489       -0.0710010406        0.3372143944
 C          0.7656857866       -1.2338199247       -0.0066306055
 C          0.0934119651       -2.4640311980       -0.2302104140
 C          0.7782957269       -3.5868031969       -0.5783225465
 C          2.1788230863       -3.5445688593       -0.7318406109
 C          2.8610612278       -2.3862268686       -0.5196907207
 C          2.1887576582       -1.1957663544       -0.1364248219
 C          2.8748465125        0.0058486157        0.0918707452
 C          4.3472094706        0.0426372158       -0.0173736685
 C          4.9637890610        0.7450149062       -1.0515717510
 C          6.3390347539        0.7867303538       -1.1522562381
 C          7.1227387421        0.1226052443       -0.2067900462
 C          8.5308351833        0.1661849728       -0.3009381720
 N          9.6751241012        0.2006634400       -0.3768394003
 C          6.5141791613       -0.5834876876        0.8324536888
 C          5.1379475187       -0.6213110571        0.9191734698
 C          2.1740329856        1.1725064810        0.4310294447
 C          2.8356904092        2.4013709213        0.6922164505
 C          2.1374942290        3.5242839552        1.0143400158
 C          0.7313192346        3.4898828274        1.1025792834
 C          0.0598638402        2.3275261744        0.8816062873
 C          0.7501119152        1.1324961530        0.5487498644
 C         -2.2261087766        0.0323665438       -0.6332279431
 C         -3.5927362874        0.0111734642       -0.4692457745
 H         -5.4202082559       -0.8900641159       -3.2572450277
 H         -4.6555549863       -1.9369397604       -2.0575697172
 H         -3.6602335584       -0.9156565616       -3.1012362742
 H         -4.6484532091        2.3210801660       -1.4677758139
 H         -3.6462094933        1.6186427084       -2.7426751442
 H         -5.4053013201        1.6422068971       -2.9125671425
 H         -7.5032103012        0.2524675154       -2.1164580522
 H         -9.2768367566        0.0348759399       -0.4190335302
 H         -8.7139594595       -0.2861291513        1.9464705638
 H         -6.3542194078       -0.3992556172        2.6705276536
 H         -3.7710246983       -0.4390364964        2.8999313872
 H         -1.3174817085       -0.3874199623        2.6013520362
 H         -0.9807858396       -2.4870555286       -0.1191317711
 H          0.2557923226       -4.5169334455       -0.7458298581
 H          2.7060627183       -4.4412886491       -1.0223199258
 H          3.9332606924       -2.3575994090       -0.6480516228
 H          4.3525166896        1.2543952651       -1.7822647227
 H          6.8163683575        1.3289455364       -1.9553036416
 H          7.1262769481       -1.0937460776        1.5616210613
 H          4.6615715634       -1.1631062694        1.7232623890
 H          3.9138485582        2.4324530143        0.6353854789
 H          2.6569391434        4.4512585311        1.2075515656
 H          0.1946335311        4.3926853883        1.3536395175
 H         -1.0170184605        2.2922803055        0.9564352892
 H         -1.7773712285        0.1630758483       -1.6075919278
  62
        -92.74739392
 C         -4.8080325958       -0.0857524378       -2.6522560705
 C         -4.7590575264        0.6600782664       -1.3149618051
 C         -4.6389805697        2.1692384987       -1.5467395708
 C         -5.9654924946        0.3269638859       -0.4651898768
 C         -7.2977979006        0.5698508635       -0.7202893485
 C         -8.2424428674        0.1721741971        0.2168907311
 C         -7.8579438907       -0.4609646421        1.3886042074
 C         -6.5209558790       -0.7096074716        1.6528862577
 C         -5.5766268040       -0.3111664417        0.7215126509
 C         -4.1274328958       -0.4191797675        0.7321709839
 C         -3.2631833928       -0.9467312963        1.6771384131
 C         -1.9017293474       -0.8845743687        1.4400582616
 C         -1.3972770812       -0.3030925983        0.2783298609
 C          0.0662347150       -0.2081366917        0.1007487091
 C          0.8263541439       -1.3732188955       -0.0759260647
 C          0.2163133779       -2.6480225956       -0.2093253839
 C          0.9627175614       -3.7728910933       -0.3812492458
 C          2.3683278474       -3.6915860585       -0.4392169755
 C          2.9917962336       -2.4869834138       -0.3294533159
 C          2.2514030255       -1.2900300095       -0.1430163878
 C          2.8797176416       -0.0410690166       -0.0440251545
 C          4.3556366886        0.0332218483       -0.0287463231
 C          5.0670666685        0.5431810515       -1.1125840776
 C          6.4449806087        0.6145046247       -1.0777003227
 C          7.1330501191        0.1760921720        0.0549586604
 C          8.5423921535        0.2499190938        0.1015118689
 N          9.6865820194        0.3184604563        0.1478414197
 C          6.4281421779       -0.3374963483        1.1452993569
 C          5.0517641525       -0.4079694428        1.0958242191
 C          2.1200706186        1.1300504200        0.0836973599
 C          2.7282711887        2.4094700696        0.1810475571
 C          1.9816949463        3.5366709144        0.3339498684
 C          0.5778976153        3.4524478292        0.4197961454
 C         -0.0432718994        2.2441167155        0.3448271661
 C          0.6946744646        1.0448093301        0.1623511273
 C         -2.2729419735        0.2110805414       -0.6787757835
 C         -3.6288436823        0.1514255713       -0.4481185958
 H         -4.8959453929       -1.1568545983       -2.4821343343
 H         -3.9022472701        0.1024282228       -3.2241148605
 H         -5.6641415921        0.2438965295       -3.2362459384
 H         -4.6106387270        2.6945979767       -0.5941667784
 H         -3.7283462671        2.3958759766       -2.0967700448
 H         -5.4898888887        2.5329585600       -2.1178141194
 H         -7.6100623761        1.0631897529       -1.6294164080
 H         -9.2899173020        0.3589875105        0.0307662540
 H         -8.6098667884       -0.7627054816        2.1031013757
 H         -6.2225241996       -1.2018656564        2.5666322475
 H         -3.6401251055       -1.3908824408        2.5862298096
 H         -1.2076415450       -1.2768905639        2.1697175387
 H         -0.8616702793       -2.7065672124       -0.1835317845
 H          0.4841227620       -4.7354235012       -0.4847867796
 H          2.9454909338       -4.5929800919       -0.5833340545
 H          4.0682636818       -2.4242126674       -0.3959581379
 H          4.5302497390        0.8804606603       -1.9873299324
 H          6.9974697581        1.0077217752       -1.9184931076
 H          6.9662904989       -0.6743231495        2.0191909481
 H          4.4992640672       -0.8026294850        1.9361003806
 H          3.8054202188        2.4750785328        0.1350472113
 H          2.4598504229        4.5026002487        0.4024508400
 H          0.0008726845        4.3551766176        0.5558571560
 H         -1.1175704644        2.1798828497        0.4291595274
 H         -1.8754006919        0.6478505827       -1.5840372043
  62
        -92.74724701
 C         -4.5178140960       -0.7197179952       -2.6426293315
 C         -4.6245826576        0.3103828860       -1.5139797861
 C         -4.5233542452        1.7324359511       -2.0740385800
 C         -5.8992518228        0.1233834758       -0.7217473090
 C         -7.2051773789        0.2223570604       -1.1503495782
 C         -8.2281739781        0.0083907105       -0.2359382707
 C         -7.9456679782       -0.2996860422        1.0856969253
 C         -6.6355532506       -0.4018534040        1.5248281301
 C         -5.6131514703       -0.1889992227        0.6152819476
 C         -4.1688447535       -0.2249146252        0.7805606020
 C         -3.3860259281       -0.4836686423        1.8934165923
 C         -2.0080577527       -0.4458839457        1.7620745349
 C         -1.4123405054       -0.1543087434        0.5387863991
 C          0.0631046192       -0.1103840670        0.4172191923
 C          0.7683280493       -1.2689597049        0.0701157754
 C          0.1058858622       -2.5039998687       -0.1558121591
 C          0.8021149265       -3.6243640484       -0.4893395521
 C          2.2057165836       -3.5792571686       -0.6161350324
 C          2.8783605539       -2.4144985432       -0.4103535654
 C          2.1904293405       -1.2213614035       -0.0651232371
 C          2.8667817817       -0.0146862181        0.1513261127
 C          4.3375358074        0.0405359529       -0.0073658540
 C          4.8970087812        0.2107220003       -1.2716328970
 C          6.2661516181        0.2691052424       -1.4321419196
 C          7.0980323993        0.1532335165       -0.3171582821
 C          8.5002678455        0.2136636059       -0.4736308932
 N          9.6396866523        0.2615550927       -0.5974678918
 C          6.5452325801       -0.0207491345        0.9528530687
 C          5.1740771030       -0.0739371083        1.1002571404
 C          2.1639161575        1.1437896005        0.5042672380
 C          2.8221111940        2.3823171459        0.7245661977
 C          2.1227359502        3.5004505243        1.0597803657
 C          0.7199876454        3.4510600081        1.1930785179
 C          0.0510369382        2.2842868860        0.9872670500
 C          0.7417429003        1.0944455947        0.6375163964
 C         -2.2031818371        0.1030137798       -0.5805791840
 C         -3.5731946155        0.0666269561       -0.4552939132
 H         -4.5950332181       -1.7275813747       -2.2398541259
 H         -3.5630921395       -0.6220620649       -3.1544077282
 H         -5.3172187012       -0.5726100262       -3.3649877252
 H         -4.6003238962        2.4598800693       -1.2685546902
 H         -3.5705061135        1.8726106877       -2.5791347306
 H         -5.3251649749        1.9162885600       -2.7851709408
 H         -7.4369719225        0.4621409208       -2.1780384538
 H         -9.2562434177        0.0828444521       -0.5587058033
 H         -8.7570064605       -0.4619103374        1.7802160990
 H         -6.4178986739       -0.6421901665        2.5549338106
 H         -3.8376309781       -0.7099604583        2.8477675940
 H         -1.3771110516       -0.6431562213        2.6170022798
 H         -0.9690868161       -2.5338991032       -0.0540093585
 H          0.2867801486       -4.5583820716       -0.6573187773
 H          2.7419363772       -4.4796628371       -0.8770778923
 H          3.9543155555       -2.3808682236       -0.5045402348
 H          4.2466343080        0.2985639572       -2.1296678338
 H          6.7011534308        0.4038599915       -2.4115580028
 H          7.1957532916       -0.1115494008        1.8102811385
 H          4.7393749471       -0.2076553385        2.0799440787
 H          3.8966812705        2.4216586611        0.6193147747
 H          2.6368950566        4.4356893741        1.2253279623
 H          0.1827363445        4.3494350716        1.4586928588
 H         -1.0236849589        2.2415268485        1.0863412660
 H         -1.7294642297        0.3276777003       -1.5256459230
  62
        -92.74706603
 C         -4.6536684043       -1.4418195583       -2.2826097674
 C         -4.7868182796       -0.1561401334       -1.4605430854
 C         -4.8818829711        1.0629365121       -2.3829869046
 C         -5.9738454420       -0.2242257429       -0.5250776595
 C         -7.3100622521       -0.3672607535       -0.8304088729
 C         -8.2333549986       -0.4079581626        0.2062703351
 C         -7.8240316960       -0.3059584223        1.5267647324
 C         -6.4830270725       -0.1613769385        1.8427836641
 C         -5.5601862572       -0.1214659174        0.8108915610
 C         -4.1130403651        0.0073399745        0.8356402221
 C         -3.2305414003        0.1252226650        1.8965043614
 C         -1.8761429087        0.2022329682        1.6273531041
 C         -1.3956075240        0.1612097021        0.3193558166
 C          0.0650374872        0.1808402656        0.1019508693
 C          0.7153384102       -0.9655889254       -0.3800242251
 C         -0.0012117792       -2.1344044342       -0.7495275204
 C          0.6407090008       -3.2429346269       -1.2085036301
 C          2.0460407542       -3.2615085902       -1.3050769722
 C          2.7730727454       -2.1733203607       -0.9329183660
 C          2.1428236887       -0.9892239366       -0.4672546165
 C          2.8824555774        0.1280978975       -0.0546822223
 C          4.3582521942        0.0608855600       -0.0195702954
 C          5.1161548231        0.0640045295       -1.1884446720
 C          6.4926023150       -0.0225787360       -1.1334415624
 C          7.1322361166       -0.1181923896        0.1036310146
 C          8.5390943431       -0.2206792666        0.1679118715
 N          9.6819117109       -0.3047843647        0.2266520948
 C          6.3808414667       -0.1159513511        1.2804055655
 C          5.0066273239       -0.0240117713        1.2119363354
 C          2.2319080934        1.2929113335        0.3744044460
 C          2.9518752493        2.4643336508        0.7277578587
 C          2.3065928911        3.5968000099        1.1190578699
 C          0.8988769736        3.6309442594        1.1724855828
 C          0.1721781646        2.5283452786        0.8432749875
 C          0.8050411954        1.3224244379        0.4432641590
 C         -2.2904171327        0.0619135191       -0.7468080607
 C         -3.6398609543       -0.0157621721       -0.4845070001
 H         -4.5818771949       -2.3040516195       -1.6226078385
 H         -3.7615110853       -1.4031049976       -2.9036179844
 H         -5.5204300203       -1.5700243723       -2.9265512831
 H         -4.9781641950        1.9728774820       -1.7942872692
 H         -3.9900480366        1.1408821688       -3.0005365328
 H         -5.7495381652        0.9770327136       -3.0328436327
 H         -7.6417167050       -0.4489915545       -1.8554512153
 H         -9.2835750247       -0.5219341903       -0.0190176393
 H         -8.5594388091       -0.3410531496        2.3172681259
 H         -6.1650450351       -0.0831889258        2.8718930164
 H         -3.5878528466        0.1481366965        2.9151285683
 H         -1.1675099754        0.2796211609        2.4397136914
 H         -1.0765885896       -2.1304037161       -0.6567866063
 H          0.0789712363       -4.1205168327       -1.4924433444
 H          2.5410067350       -4.1507080033       -1.6665242713
 H          3.8513445052       -2.1979725946       -0.9894315091
 H          4.6168308543        0.1384291665       -2.1435759928
 H          7.0811471826       -0.0195064291       -2.0392227306
 H          6.8816101818       -0.1888319046        2.2346926227
 H          4.4182490298       -0.0249885125        2.1179407961
 H          4.0303903407        2.4464710153        0.6665549055
 H          2.8680524915        4.4813158319        1.3812868737
 H          0.4030698170        4.5433494072        1.4690520488
 H         -0.9070701607        2.5584240131        0.8668826906
 H         -1.9133957102        0.0484038794       -1.7597348739
  62
        -92.74666500
 C         -4.2479771136       -1.4809387566       -2.3922339128
 C         -4.4018951532       -0.1565191588       -1.6376243392
 C         -4.1629698717        1.0274020662       -2.5793266799
 C         -5.7532840334       -0.0615244172       -0.9662525908
 C         -7.0040572313       -0.0487646346       -1.5440949289
 C         -8.1197100376        0.0520766759       -0.7235039799
 C         -7.9820954860        0.1372774234        0.6531714062
 C         -6.7281683450        0.1235793313        1.2425846512
 C         -5.6131448248        0.0240466754        0.4270957226
 C         -4.1953784803       -0.0052007290        0.7499723217
 C         -3.5318485740        0.0478351406        1.9648991088
 C         -2.1467405580        0.0159372521        1.9735768308
 C         -1.4239713177       -0.0727222474        0.7873161415
 C          0.0526291454       -0.0809032624        0.7594524579
 C          0.7238318870       -1.2320985427        0.3211151120
 C          0.0312848891       -2.4472860558        0.0780941340
 C          0.6834542600       -3.5533380097       -0.3724590878
 C          2.0697687611       -3.5080335491       -0.6208154400
 C          2.7728608587       -2.3662163546       -0.3887708296
 C          2.1370629296       -1.1990087450        0.1104219542
 C          2.8454809800       -0.0171333285        0.3678515635
 C          4.2779068156        0.0727324854        0.0163990112
 C          4.6530611689        0.8370509239       -1.0881242276
 C          5.9744945652        0.9193535841       -1.4728412529
 C          6.9492473005        0.2350316146       -0.7438927223
 C          8.3018973772        0.3099140959       -1.1422387282
 N          9.3973487881        0.3697076707       -1.4778198935
 C          6.5848025189       -0.5220914556        0.3707650546
 C          5.2574694440       -0.6010886483        0.7420213542
 C          2.1898077843        1.1053255945        0.8920671705
 C          2.8992920247        2.2828147421        1.2465503702
 C          2.2520209085        3.3759666663        1.7340810608
 C          0.8506054464        3.3644802581        1.8809387541
 C          0.1346583451        2.2525622292        1.5597453893
 C          0.7729852015        1.0785979965        1.0807538168
 C         -2.0982343151       -0.1402634156       -0.4338622202
 C         -3.4719637043       -0.1035013284       -0.4478267440
 H         -3.2462314594       -1.5640138392       -2.8079011247
 H         -4.9686777557       -1.5394311205       -3.2044107706
 H         -4.4155293854       -2.3188626005       -1.7185691698
 H         -4.2809724150        1.9656524585       -2.0411706884
 H         -3.1564209212        0.9864408602       -2.9893548922
 H         -4.8747780376        1.0064934942       -3.4011174105
 H         -7.1221033910       -0.1139563815       -2.6161244446
 H         -9.1061074492        0.0650014128       -1.1634847967
 H         -8.8636422182        0.2158315913        1.2725192365
 H         -6.6242344241        0.1907209733        2.3154186460
 H         -4.0809566951        0.1146012480        2.8924006093
 H         -1.6123917879        0.0504624329        2.9125091385
 H         -1.0307730514       -2.4802654772        0.2708808696
 H          0.1445379902       -4.4731221430       -0.5451916331
 H          2.5700309430       -4.3897701118       -0.9932310644
 H          3.8359069752       -2.3367665469       -0.5774984511
 H          3.8923750018        1.3611244237       -1.6483514697
 H          6.2628831128        1.5051754779       -2.3333282564
 H          7.3456111755       -1.0431738025        0.9333723213
 H          4.9708303936       -1.1859590202        1.6039791622
 H          3.9737680343        2.2917104486        1.1332759921
 H          2.8062556369        4.2614928430        2.0079132704
 H          0.3507927427        4.2465261135        2.2530825044
 H         -0.9390207360        2.2454131396        1.6718806145
 H         -1.5285122946       -0.2112131714       -1.3495070285
