  62
  -92.3631739308000       0.208025362544389      !
 C         -4.5540263747       -1.9640085682       -1.8598448205
 C         -4.6556713612       -0.4932402169       -1.4449731231
 C         -4.5780597197        0.4179231411       -2.6742282225
 C         -5.9167441012       -0.2323475632       -0.6517770889
 C         -7.2296610163       -0.3910063800       -1.0390591117
 C         -8.2366698945       -0.0884210452       -0.1319111803
 C         -7.9316787493        0.3666119307        1.1414433432
 C         -6.6145110601        0.5301230376        1.5386659893
 C         -5.6080407240        0.2281027399        0.6365061488
 C         -4.1614844765        0.2919452060        0.7680762928
 C         -3.3601698665        0.6786667922        1.8295127524
 C         -1.9849818958        0.6345560383        1.6763019036
 C         -1.4083344498        0.2030387844        0.4848430825
 C          0.0637405847        0.1485189952        0.3499082612
 C          0.7205044760       -1.0881238420        0.4042670359
 C          0.0082849718       -2.3006525287        0.5997275320
 C          0.6530043216       -3.4982404010        0.6382842317
 C          2.0519789668       -3.5571376655        0.4781564198
 C          2.7729574722       -2.4165137136        0.3016625500
 C          2.1427870760       -1.1444465220        0.2738655768
 C          2.8718352963        0.0410233213        0.1037495840
 C          4.3431511381       -0.0172249151       -0.0189259899
 C          4.9614605422        0.2468412768       -1.2397950889
 C          6.3345274116        0.1864964757       -1.3609919267
 C          7.1136687431       -0.1364467206       -0.2486493206
 C          8.5194576527       -0.2023158351       -0.3652724804
 N          9.6615507241       -0.2566037203       -0.4606896011
 C          6.5032653560       -0.3982055199        0.9794001562
 C          5.1289755415       -0.3399791260        1.0859731905
 C          2.2161732256        1.2789152039        0.0503912953
 C          2.9258305714        2.4999118741       -0.0974172351
 C          2.2726197558        3.6920315990       -0.1595037832
 C          0.8662988603        3.7395581667       -0.0778121916
 C          0.1499444384        2.5943498102        0.0841590378
 C          0.7924734987        1.3311112232        0.1680743692
 C         -2.2187854603       -0.1849297356       -0.5822488380
 C         -3.5864214661       -0.1344847457       -0.4381298382
 H         -5.3657095162       -2.2225366934       -2.5357089232
 H         -4.6138421674       -2.6067397630       -0.9838752986
 H         -3.6084378911       -2.1499231911       -2.3640916430
 H         -4.6521071177        1.4611599340       -2.3740200714
 H         -3.6336798935        0.2720399578       -3.1936240572
 H         -5.3916162165        0.1960706363       -3.3607364454
 H         -7.4790740478       -0.7448288937       -2.0289002274
 H         -9.2700139202       -0.2098334035       -0.4218618169
 H         -8.7309451455        0.5949603679        1.8313499523
 H         -6.3791643156        0.8839596372        2.5314856014
 H         -3.7954175967        1.0077928826        2.7612937143
 H         -1.3401608027        0.9297031417        2.4918871198
 H         -1.0641862681       -2.2520858310        0.7168626914
 H          0.0986314588       -4.4131560947        0.7858759225
 H          2.5468835941       -4.5168935668        0.4973834261
 H          3.8447135576       -2.4664918866        0.1762083336
 H          4.3531474759        0.4941539658       -2.0977020248
 H          6.8131262941        0.3843361206       -2.3088860560
 H          7.1122125740       -0.6456754636        1.8365617980
 H          4.6510190277       -0.5379277130        2.0343223794
 H          4.0039760050        2.4681860597       -0.1571154539
 H          2.8272967986        4.6118184655       -0.2719820635
 H          0.3650127705        4.6940014936       -0.1392019025
 H         -0.9273257054        2.6265013327        0.1530117309
 H         -1.7612136597       -0.5129527356       -1.5049041804
  62
  -92.3628842074000       0.153097687836158      !
 C         -4.6191778436       -1.7637542405       -2.0328612306
 C         -4.6751679479       -0.3364514140       -1.4802236345
 C         -4.5725667739        0.6836612870       -2.6184268023
 C         -5.9267036374       -0.1143456951       -0.6605485479
 C         -7.2442327985       -0.1830528447       -1.0584208630
 C         -8.2399792632        0.0658941165       -0.1230901836
 C         -7.9196139050        0.3784675045        1.1888172515
 C         -6.5976970572        0.4496350522        1.5973413458
 C         -5.6025674992        0.2018362175        0.6667539987
 C         -4.1546267385        0.2063646835        0.7982273175
 C         -3.3418436431        0.4608656031        1.8903310872
 C         -1.9685965515        0.4050356636        1.7249752355
 C         -1.4064689006        0.0946235187        0.4899872048
 C          0.0662125215        0.0556236007        0.3400627637
 C          0.7478471896       -1.1627042289        0.4443801890
 C          0.0571949092       -2.3799426821        0.6824763343
 C          0.7246662232       -3.5623113214        0.7682156558
 C          2.1251177071       -3.5993513380        0.6126775633
 C          2.8246608860       -2.4533514747        0.3901100921
 C          2.1708625212       -1.1953346281        0.3125060535
 C          2.8749336247       -0.0032146260        0.0892369332
 C          4.3472874064       -0.0302665681       -0.0229368492
 C          4.9703244623        0.2384878650       -1.2405847321
 C          6.3456719391        0.2205614493       -1.3467742898
 C          7.1230089977       -0.0653613736       -0.2228723106
 C          8.5312529874       -0.0796539103       -0.3235859586
 N          9.6756504495       -0.0919196564       -0.4045235208
 C          6.5079550961       -0.3358571487        1.0008434515
 C          5.1316295139       -0.3193734278        1.0926074996
 C          2.1921340968        1.2170007568       -0.0208449541
 C          2.8722815840        2.4468259657       -0.2234439721
 C          2.1914116332        3.6200633755       -0.3334679219
 C          0.7852003979        3.6407256898       -0.2415943596
 C          0.0963506379        2.4876181942       -0.0257622209
 C          0.7681998646        1.2434274481        0.1004937062
 C         -2.2275860312       -0.1676992065       -0.6060717417
 C         -3.5938028544       -0.1077514441       -0.4483761190
 H         -5.4436502780       -1.9349138724       -2.7208999973
 H         -4.6899852248       -2.4845113231       -1.2209680928
 H         -3.6836971740       -1.9277454460       -2.5627281742
 H         -4.6196536278        1.6955914288       -2.2211857824
 H         -3.6320149158        0.5627742408       -3.1510105741
 H         -5.3911623130        0.5486516800       -3.3213737312
 H         -7.5060672564       -0.4252087244       -2.0783289537
 H         -9.2767684685        0.0158239302       -0.4216894878
 H         -8.7104015068        0.5694548257        1.8995614756
 H         -6.3500459572        0.6930377638        2.6198935623
 H         -3.7669133547        0.7016476072        2.8532502141
 H         -1.3139271075        0.6051376149        2.5613060572
 H         -1.0168330661       -2.3452343570        0.7921519872
 H          0.1882742040       -4.4818662496        0.9496353959
 H          2.6384097823       -4.5479118338        0.6695148265
 H          3.8967116161       -2.4891014278        0.2622941411
 H          4.3639175316        0.4559273196       -2.1077785967
 H          6.8279742299        0.4263104405       -2.2911162080
 H          7.1151694676       -0.5546815972        1.8669375284
 H          4.6502943972       -0.5243662967        2.0377686086
 H          3.9505725103        2.4393052746       -0.2855162479
 H          2.7247888624        4.5460781808       -0.4898037724
 H          0.2624146478        4.5807444962       -0.3373803324
 H         -0.9806622998        2.4977920654        0.0545917752
 H         -1.7803820042       -0.4071185735       -1.5602847205
  62
  -92.3626831491000       0.123756675612006      !
 C         -4.5717287272       -0.8166237345       -2.5743682724
 C         -4.6464134124        0.2890757391       -1.5171512609
 C         -4.5302606555        1.6680167711       -2.1743836059
 C         -5.9127194026        0.1788795087       -0.6975026991
 C         -7.2230014116        0.2642819693       -1.1155229119
 C         -8.2360537337        0.1294329456       -0.1752421966
 C         -7.9396986036       -0.0863010947        1.1615962867
 C         -6.6251888089       -0.1723561655        1.5906593605
 C         -5.6126529234       -0.0392253524        0.6551448336
 C         -4.1672853949       -0.0842665407        0.8043922390
 C         -3.3722938793       -0.2690399463        1.9235630145
 C         -1.9965463809       -0.2663586024        1.7712592627
 C         -1.4106284946       -0.0778947134        0.5215115381
 C          0.0598680311       -0.0696223919        0.3823472032
 C          0.7887157776       -1.2498788265        0.5886945276
 C          0.1476112105       -2.4783432324        0.8977521573
 C          0.8648316749       -3.6135145460        1.1177957636
 C          2.2718761088       -3.5894319113        1.0479353401
 C          2.9241050957       -2.4378127530        0.7320104138
 C          2.2131925200       -1.2370201538        0.4693176328
 C          2.8701373052       -0.0494738709        0.1171118545
 C          4.3411461545       -0.0381049409       -0.0178809909
 C          4.9584154964       -0.7119529924       -1.0708117398
 C          6.3317717825       -0.7069844752       -1.2012121958
 C          7.1127813766       -0.0240528543       -0.2669203051
 C          8.5193167913       -0.0214691419       -0.3923859057
 N          9.6621106521       -0.0114214256       -0.4976030959
 C          6.5034703364        0.6531632193        0.7914147875
 C          5.1287922174        0.6441507251        0.9078789169
 C          2.1417207223        1.1269148193       -0.1087298906
 C          2.7740860158        2.3351743607       -0.5043207584
 C          2.0575513184        3.4749032944       -0.7021087036
 C          0.6617265410        3.4793092020       -0.5096033345
 C          0.0147636099        2.3370792997       -0.1513647107
 C          0.7199130180        1.1195704251        0.0395136666
 C         -2.2161202683        0.1093025247       -0.6028449988
 C         -3.5841930262        0.1038987277       -0.4573737758
 H         -4.6610820631       -1.7933672364       -2.1031813007
 H         -3.6219839589       -0.7709967792       -3.1025121017
 H         -5.3775802509       -0.7043839427       -3.2960246965
 H         -4.5848592888        2.4497098128       -1.4193009308
 H         -3.5821089766        1.7572534622       -2.6999275924
 H         -5.3388316922        1.8169934532       -2.8862209720
 H         -7.4658922542        0.4313696700       -2.1549340959
 H         -9.2674700303        0.1938895748       -0.4893905982
 H         -8.7436936689       -0.1878226245        1.8760211322
 H         -6.3965138890       -0.3410444097        2.6324699155
 H         -3.8134100487       -0.4112603668        2.8988982341
 H         -1.3575858071       -0.4026544148        2.6322764121
 H         -0.9304403124       -2.4957548044        0.9525600054
 H          0.3624320915       -4.5403718877        1.3517331636
 H          2.8277047284       -4.4941658956        1.2450327374
 H          4.0027975179       -2.4233947008        0.6785148560
 H          4.3487793817       -1.2379896501       -1.7912768151
 H          6.8096325096       -1.2268123184       -2.0189192957
 H          7.1137359651        1.1787823370        1.5114962032
 H          4.6519907353        1.1618307926        1.7270454525
 H          3.8441614192        2.3351378971       -0.6518940556
 H          2.5535559673        4.3852307638       -1.0049002524
 H          0.1106374148        4.3967614006       -0.6538147513
 H         -1.0548284080        2.3406734584       -0.0037370828
 H         -1.7540684209        0.2493811349       -1.5698008207
  62
  -92.3626324469000       0.117291763739195      !
 C         -4.8168693562       -0.9529476629       -2.4594010537
 C         -4.7539060365        0.2167296780       -1.4720265109
 C         -4.6145482465        1.5447502302       -2.2221230608
 C         -5.9620350404        0.2218189542       -0.5615534129
 C         -7.2917811015        0.3767879107       -0.8884594463
 C         -8.2387316688        0.3488584053        0.1270758371
 C         -7.8590620891        0.1656771435        1.4476485760
 C         -6.5246819488        0.0085074322        1.7851875002
 C         -5.5780192807        0.0392087280        0.7748129782
 C         -4.1303584906       -0.0775942715        0.8255944553
 C         -3.2702795913       -0.2486400112        1.8976060705
 C         -1.9088557695       -0.2926691098        1.6563298478
 C         -1.4003104370       -0.1662620773        0.3649705167
 C          0.0637791590       -0.1599563414        0.1679416864
 C          0.8078426198       -1.3224054578        0.4159208823
 C          0.1805512705       -2.5537071086        0.7406844828
 C          0.9114483737       -3.6766784612        0.9788670222
 C          2.3178282159       -3.6400766588        0.8984488029
 C          2.9575428495       -2.4829729453        0.5764168090
 C          2.2336562126       -1.2875285871        0.3263384090
 C          2.8787715098       -0.0928082815       -0.0214427403
 C          4.3555855758       -0.0378224565       -0.0307369341
 C          5.0703806447        0.0464302636       -1.2235758889
 C          6.4492195522        0.1068925932       -1.2136597985
 C          7.1348927036        0.0879467843        0.0020930085
 C          8.5452258151        0.1544519538        0.0220970724
 N          9.6903605558        0.2195097647        0.0432796534
 C          6.4265909342        0.0025102780        1.2023098286
 C          5.0492542616       -0.0623353454        1.1784466658
 C          2.1351100997        1.0579766449       -0.3173466696
 C          2.7605118991        2.2808771818       -0.6774667886
 C          2.0294152519        3.3993082503       -0.9342674599
 C          0.6248951346        3.3698077313       -0.8267359889
 C         -0.0124634049        2.2214855937       -0.4708338190
 C          0.7089575767        1.0252726425       -0.2162225694
 C         -2.2720182748       -0.0118665771       -0.7136868481
 C         -3.6278768360        0.0321573001       -0.4792932517
 H         -4.9184489022       -1.8934654790       -1.9217787545
 H         -3.9104297628       -0.9913021141       -3.0592157689
 H         -5.6703231021       -0.8395113948       -3.1237685256
 H         -4.5763200591        2.3724915285       -1.5167269205
 H         -3.7026833486        1.5500168051       -2.8151049940
 H         -5.4623105246        1.6945499003       -2.8864441948
 H         -7.6002694858        0.5210595815       -1.9138496035
 H         -9.2842045493        0.4719214654       -0.1149699553
 H         -8.6127206762        0.1461625705        2.2213149753
 H         -6.2299965707       -0.1329340893        2.8144912190
 H         -3.6502817298       -0.3376234683        2.9043248893
 H         -1.2177915104       -0.4110412906        2.4788204263
 H         -0.8980293913       -2.5848117635        0.7835540958
 H          0.4198216507       -4.6071175558        1.2214116482
 H          2.8825474123       -4.5419121991        1.0833353942
 H          4.0345384337       -2.4622864426        0.4939680052
 H          4.5353976304        0.0599157134       -2.1620435643
 H          7.0042875011        0.1700120256       -2.1381661555
 H          6.9629085953       -0.0108715804        2.1398207431
 H          4.4941546659       -0.1269868472        2.1029798144
 H          3.8382895857        2.3114570656       -0.7417370318
 H          2.5205401200        4.3205450842       -1.2107879500
 H          0.0603070325        4.2700420271       -1.0196300596
 H         -1.0872549510        2.2057033856       -0.3711874561
 H         -1.8715045480        0.0712891830       -1.7141763552
  62
  -92.3625355617000       0.105862503889840      !
 C         -4.4606399381       -0.8106702654       -2.6069085969
 C         -4.5782355559        0.2916887246       -1.5502089627
 C         -4.4428998859        1.6728936247       -2.1989966365
 C         -5.8724942838        0.1744623439       -0.7767649692
 C         -7.1669423710        0.2572726243       -1.2417992183
 C         -8.2129673662        0.1174803919       -0.3391839360
 C         -7.9644540176       -0.1008847181        1.0069242856
 C         -6.6661296479       -0.1848687364        1.4831509787
 C         -5.6206629968       -0.0462097176        0.5854001616
 C         -4.1813437978       -0.0865738944        0.7866317946
 C         -3.4251837244       -0.2711242536        1.9324930359
 C         -2.0445057957       -0.2638516208        1.8292676181
 C         -1.4160076728       -0.0709829253        0.6014436166
 C          0.0572290555       -0.0585970418        0.4969327793
 C          0.7879323737       -1.2363939759        0.7098071599
 C          0.1512713866       -2.4616714033        1.0399546384
 C          0.8721490333       -3.5926611736        1.2696828646
 C          2.2784106595       -3.5680925597        1.1853100487
 C          2.9257353924       -2.4208759442        0.8439585430
 C          2.2108904352       -1.2243711209        0.5727708939
 C          2.8640068963       -0.0427361575        0.1936462852
 C          4.3267130124       -0.0473700186       -0.0086000081
 C          4.8807638791       -0.7584844145       -1.0723530585
 C          6.2436964933       -0.7615082317       -1.2843754875
 C          7.0793524321       -0.0490973356       -0.4220204863
 C          8.4751464165       -0.0468319650       -0.6353823212
 N          9.6091565527       -0.0440603754       -0.8105598501
 C          6.5345434085        0.6606783731        0.6496655030
 C          5.1690549660        0.6594603693        0.8480732137
 C          2.1355925271        1.1374606090       -0.0145520182
 C          2.7617168600        2.3464306152       -0.4179771203
 C          2.0440511171        3.4891893442       -0.5937477345
 C          0.6522140598        3.4957311298       -0.3747783594
 C          0.0096342577        2.3513862309       -0.0155753264
 C          0.7163268885        1.1318417744        0.1559568895
 C         -2.1827279239        0.1171136043       -0.5499977337
 C         -3.5546524781        0.1069726127       -0.4533076856
 H         -4.5575756136       -1.7893067032       -2.1413370229
 H         -3.4945397150       -0.7562351223       -3.1034510942
 H         -5.2432118674       -0.7027145440       -3.3542500916
 H         -4.5328552870        2.4524203463       -1.4450169639
 H         -3.4745516568        1.7687743407       -2.6850605807
 H         -5.2222491175        1.8187320453       -2.9431599439
 H         -7.3723403796        0.4268769438       -2.2888993980
 H         -9.2325768032        0.1797210233       -0.6904386929
 H         -8.7934085586       -0.2063151989        1.6914424169
 H         -6.4749474883       -0.3546940140        2.5323711156
 H         -3.8998641059       -0.4167734201        2.8914139789
 H         -1.4363596665       -0.3985009315        2.7125812389
 H         -0.9262252961       -2.4798113996        1.1055491463
 H          0.3731235875       -4.5167974531        1.5210914885
 H          2.8373832972       -4.4691708700        1.3902199492
 H          4.0040030586       -2.4052928889        0.7815082115
 H          4.2286432968       -1.3044443545       -1.7385513855
 H          6.6714244168       -1.3092687162       -2.1113313448
 H          7.1872501878        1.2066253906        1.3150801757
 H          4.7427784863        1.2049575999        1.6774564760
 H          3.8284922541        2.3466461744       -0.5867570109
 H          2.5368523167        4.4008319108       -0.8978016076
 H          0.1010265566        4.4161812257       -0.4982379646
 H         -1.0570592876        2.3553632405        0.1514433272
 H         -1.6870328082        0.2621470576       -1.4994075504
  62
  -92.3625279405000       0.105012186409726      !
 C         -4.6399620776       -2.0794793520       -1.6833802469
 C         -4.7345383670       -0.5835702157       -1.3668776391
 C         -4.7277252480        0.2395063384       -2.6585122521
 C         -5.9575374707       -0.2783179569       -0.5306138513
 C         -7.2871312834       -0.4624222504       -0.8426092935
 C         -8.2499980500       -0.1067328973        0.0928196204
 C         -7.8857350071        0.4245571571        1.3202546876
 C         -6.5515561765        0.6128944451        1.6422639852
 C         -5.5892081890        0.2588984696        0.7113565294
 C         -4.1389413044        0.3346240220        0.7679497530
 C         -3.2904351104        0.7799729906        1.7679986584
 C         -1.9247295284        0.7269363649        1.5533205497
 C         -1.4003623669        0.2345454601        0.3596990190
 C          0.0649786330        0.1676454355        0.1862426617
 C          0.7071135824       -1.0787606842        0.1367516423
 C         -0.0178917281       -2.2968550743        0.2189495772
 C          0.6152383955       -3.5007548349        0.1829580269
 C          2.0192285896       -3.5622628433        0.0838709480
 C          2.7536708417       -2.4182910987        0.0259490318
 C          2.1325379167       -1.1414292644        0.0397961547
 C          2.8792144539        0.0448281107        0.0012988328
 C          4.3548827729       -0.0149234630       -0.0274269050
 C          5.0344245956       -0.4664009143       -1.1572450519
 C          6.4129358970       -0.5266231814       -1.1717331416
 C          7.1352913118       -0.1355501950       -0.0429913790
 C          8.5457864803       -0.2005543781       -0.0479375482
 N          9.6918863215       -0.2544043862       -0.0499186193
 C          6.4630915635        0.3194371319        1.0930062051
 C          5.0851741659        0.3791473945        1.0929787179
 C          2.2368401643        1.2909829349        0.0179262017
 C          2.9616748453        2.5079928496       -0.0785627488
 C          2.3246691871        3.7104842654       -0.0802494003
 C          0.9193423286        3.7707729251        0.0010130798
 C          0.1871691840        2.6268797373        0.0864025896
 C          0.8117853713        1.3522354523        0.1067048953
 C         -2.2598370152       -0.2064463583       -0.6474877740
 C         -3.6195514530       -0.1546125112       -0.4395987003
 H         -4.6473929777       -2.6595682810       -0.7627220635
 H         -3.7204107300       -2.2944394257       -2.2230636517
 H         -5.4834634570       -2.3902238310       -2.2952423034
 H         -4.7966732912        1.3006943559       -2.4282882654
 H         -3.8097211098        0.0632818796       -3.2144351849
 H         -5.5728688186       -0.0350559156       -3.2853018166
 H         -7.5835069320       -0.8759342473       -1.7957749627
 H         -9.2957594560       -0.2463749256       -0.1386195986
 H         -8.6515027661        0.6936845918        2.0330582590
 H         -6.2692234870        1.0264607229        2.5990933366
 H         -3.6828938072        1.1578503633        2.7002254426
 H         -1.2434884151        1.0597670454        2.3235722069
 H         -1.0919927979       -2.2509645083        0.3168068146
 H          0.0480731033       -4.4179134679        0.2416805008
 H          2.5077582723       -4.5252979034        0.0669521289
 H          3.8311700535       -2.4695616856       -0.0278470936
 H          4.4710862595       -0.7655405219       -2.0292099869
 H          6.9398017038       -0.8746999767       -2.0480969042
 H          7.0276759545        0.6202659636        1.9633591482
 H          4.5587603110        0.7273472278        1.9697813390
 H          4.0376355673        2.4643250678       -0.1639038749
 H          2.8907416063        4.6270761320       -0.1563627942
 H          0.4291730524        4.7328679865       -0.0163032296
 H         -0.8908867615        2.6715363548        0.1279426913
 H         -1.8468620332       -0.5768597944       -1.5751192276
  62
  -92.3622185417000       7.569197848878936E-002 !
 C         -4.6783830545       -2.0816306188       -1.6508563138
 C         -4.7926821865       -0.5893646627       -1.3244024467
 C         -4.8748626612        0.2365871303       -2.6117010787
 C         -5.9777361345       -0.3142791574       -0.4251028288
 C         -7.3165607446       -0.5366957897       -0.6643538115
 C         -8.2372563426       -0.2043399393        0.3208815714
 C         -7.8227951500        0.3427211549        1.5252905740
 C         -6.4791320557        0.5702227331        1.7740428437
 C         -5.5588843716        0.2387905710        0.7935703585
 C         -4.1101442727        0.3493765009        0.7746609705
 C         -3.2231059329        0.8153935722        1.7307595777
 C         -1.8686284259        0.7769468077        1.4538466139
 C         -1.3924915495        0.2798439904        0.2415609494
 C          0.0676416983        0.2040780834        0.0332233753
 C          0.7018235749       -1.0466489993       -0.0214235265
 C         -0.0306846722       -2.2617060680        0.0349195358
 C          0.5956695074       -3.4688131809       -0.0112692603
 C          2.0003601020       -3.5379141730       -0.0931113392
 C          2.7423266561       -2.3977196900       -0.1190601467
 C          2.1286284914       -1.1175551410       -0.0927118472
 C          2.8836846007        0.0637856197       -0.0907958746
 C          4.3585983184       -0.0063214659       -0.0321399135
 C          5.1130503978       -0.4175018457       -1.1286918667
 C          6.4884342687       -0.4976115043       -1.0448387083
 C          7.1304163080       -0.1677976596        0.1500268995
 C          8.5360322471       -0.2600149029        0.2481363785
 N          9.6778486965       -0.3334688776        0.3342486719
 C          6.3825632970        0.2510590982        1.2521485697
 C          5.0094415731        0.3315078091        1.1538115552
 C          2.2493361415        1.3134727747       -0.0921321637
 C          2.9852470496        2.5253457454       -0.1645243144
 C          2.3556391549        3.7315479999       -0.1901191456
 C          0.9486371476        3.8003663108       -0.1541490716
 C          0.2069454397        2.6615007120       -0.0829181382
 C          0.8231708380        1.3835322817       -0.0401127377
 C         -2.2916174794       -0.1704080004       -0.7259591218
 C         -3.6411693194       -0.1350190493       -0.4552352025
 H         -4.6156828303       -2.6632522529       -0.7332585763
 H         -3.7876274676       -2.2716837096       -2.2454393709
 H         -5.5485955619       -2.4133455238       -2.2121657317
 H         -4.9577819117        1.2951463121       -2.3742000047
 H         -3.9839179430        0.0845410304       -3.2166077753
 H         -5.7454454187       -0.0574750460       -3.1931921485
 H         -7.6522349458       -0.9635696417       -1.5984244453
 H         -9.2895028345       -0.3755299521        0.1471616550
 H         -8.5562710571        0.5927511888        2.2779186048
 H         -6.1571624518        0.9953570968        2.7131319489
 H         -3.5771088664        1.1938253022        2.6779993288
 H         -1.1566868851        1.1212889274        2.1904924157
 H         -1.1056461541       -2.2118939773        0.1187570883
 H          0.0219329245       -4.3830562321        0.0248912435
 H          2.4828608459       -4.5036038966       -0.1238921533
 H          3.8200250846       -2.4544154713       -0.1617584095
 H          4.6119215454       -0.6715116092       -2.0514530524
 H          7.0743135145       -0.8156435322       -1.8948005684
 H          6.8851540301        0.5062067494        2.1735859793
 H          4.4237563211        0.6515809578        2.0032584452
 H          4.0632618133        2.4733948564       -0.2139707699
 H          2.9291225847        4.6447912314       -0.2490490068
 H          0.4654017311        4.7653998395       -0.1922722913
 H         -0.8717565484        2.7119201251       -0.0729730224
 H         -1.9177693850       -0.5383024127       -1.6710727106
  62
  -92.3619452101000       5.668071906924950E-002 !
 C         -4.2828518315       -2.1957374883       -1.6724799920
 C         -4.4108896177       -0.6825067532       -1.4701122323
 C         -4.1557995674        0.0574204874       -2.7865448361
 C         -5.7575747628       -0.3190803231       -0.8866944739
 C         -7.0104069451       -0.5021674861       -1.4301912872
 C         -8.1206545822       -0.0814667721       -0.7100657750
 C         -7.9757185292        0.5114469001        0.5344738864
 C         -6.7196994446        0.6979492726        1.0890564412
 C         -5.6100368181        0.2803860452        0.3731680426
 C         -4.1916094179        0.3496495683        0.6869074108
 C         -3.5220808587        0.8429115916        1.7948586384
 C         -2.1376956178        0.7924421982        1.8182539246
 C         -1.4216261732        0.2527338689        0.7536273355
 C          0.0544862934        0.2089446579        0.7344770755
 C          0.7040407769       -1.0341352625        0.7615807102
 C         -0.0102010842       -2.2394807759        0.9904081328
 C          0.6210420750       -3.4449701595        0.9892086989
 C          2.0068535607       -3.5203122162        0.7453821857
 C          2.7303383197       -2.3872695646        0.5339256713
 C          2.1167169844       -1.1071415049        0.5573148479
 C          2.8463198710        0.0724566395        0.3543777059
 C          4.2785560562       -0.0010568970       -0.0016192118
 C          4.6619883130        0.2865234396       -1.3112650814
 C          5.9829778013        0.1954596904       -1.6955323107
 C          6.9490039992       -0.1823895170       -0.7607442199
 C          8.3010202604       -0.2859868362       -1.1547858187
 N          9.3958883419       -0.3755417009       -1.4856144661
 C          6.5764459335       -0.4596866095        0.5556235524
 C          5.2495565978       -0.3705050273        0.9261586038
 C          2.2121687679        1.3208420807        0.4176986700
 C          2.9431777646        2.5327580054        0.3063768076
 C          2.3167698134        3.7400748487        0.3467044668
 C          0.9160034957        3.8089550774        0.4837214522
 C          0.1797953661        2.6704113247        0.6012920499
 C          0.7959161772        1.3915537238        0.5991696295
 C         -2.1021607341       -0.2561296973       -0.3547045518
 C         -3.4751086101       -0.2033333896       -0.3847973006
 H         -3.2844585402       -2.4461109960       -2.0241886762
 H         -5.0079132079       -2.5420008589       -2.4051802713
 H         -4.4618143378       -2.7167602310       -0.7341186326
 H         -4.2554512547        1.1309254988       -2.6398928615
 H         -3.1518600402       -0.1518892590       -3.1488107619
 H         -4.8713687907       -0.2577699486       -3.5422324131
 H         -7.1341330034       -0.9626144987       -2.3997853018
 H         -9.1085596336       -0.2173050199       -1.1251821461
 H         -8.8531377900        0.8319277986        1.0769815525
 H         -6.6100466792        1.1607514035        2.0586303162
 H         -4.0659967338        1.2622469239        2.6282552277
 H         -1.5988246711        1.1672844223        2.6769889737
 H         -1.0718333532       -2.1792137924        1.1788922243
 H          0.0657550367       -4.3528428319        1.1727669885
 H          2.4903799568       -4.4859420614        0.7321066330
 H          3.7929156614       -2.4493027026        0.3505306473
 H          3.9079789254        0.5753971415       -2.0290205192
 H          6.2776514390        0.4106471924       -2.7122205200
 H          7.3306390770       -0.7448974770        1.2744636069
 H          4.9566547335       -0.5842894913        1.9438576069
 H          4.0171546938        2.4797753904        0.2006634603
 H          2.8872199251        4.6538481874        0.2697513751
 H          0.4329306300        4.7747617738        0.4966300691
 H         -0.8933597862        2.7245716013        0.7052962362
 H         -1.5376549376       -0.6752550684       -1.1754905120
  62
  -92.3619095399000       5.458112241064614E-002 !
 C         -4.5376924195       -1.5666781206       -2.2061267314
 C         -4.6248955211       -0.1938195204       -1.5323225829
 C         -4.5044034020        0.9234087144       -2.5732023476
 C         -5.8993298432       -0.0588081115       -0.7292213216
 C         -7.2051778948       -0.1033923017       -1.1670687263
 C         -8.2279287054        0.0473320585       -0.2398607524
 C         -7.9452593585        0.2393592083        1.1035171285
 C         -6.6352321490        0.2847553753        1.5523410166
 C         -5.6130750331        0.1347832668        0.6300667851
 C         -4.1688763958        0.1396930077        0.8000521739
 C         -3.3859750399        0.2936669285        1.9321144110
 C         -2.0080829475        0.2597651044        1.7989274761
 C         -1.4125226044        0.0749039414        0.5549567254
 C          0.0629624865        0.0487994234        0.4288275075
 C          0.7494707532       -1.1671147657        0.5306973334
 C          0.0677714225       -2.3889992140        0.7704507623
 C          0.7459086314       -3.5642510424        0.8709713707
 C          2.1495574767       -3.5900682127        0.7393935264
 C          2.8403304811       -2.4411132046        0.5065982854
 C          2.1716236158       -1.1939821314        0.3903882056
 C          2.8667718310       -0.0021735837        0.1522090854
 C          4.3376004754       -0.0312613721       -0.0126151605
 C          4.8949519784       -0.3435214876       -1.2504347667
 C          6.2642222883       -0.3687784338       -1.4183179476
 C          7.0983292752       -0.0817985727       -0.3363990521
 C          8.5007336436       -0.1041810063       -0.5012041930
 N          9.6402835921       -0.1222874534       -0.6315977725
 C          6.5476141503        0.2289256992        0.9081690305
 C          5.1763615717        0.2542586049        1.0619509309
 C          2.1826408611        1.2157453913        0.0558144166
 C          2.8601253141        2.4388829712       -0.1904620440
 C          2.1788150062        3.6127232449       -0.2886037690
 C          0.7759788916        3.6369174361       -0.1494056950
 C          0.0888684049        2.4860201563        0.0841056705
 C          0.7603826242        1.2402618538        0.1949093234
 C         -2.2034906851       -0.0826589313       -0.5826581646
 C         -3.5734294394       -0.0497915190       -0.4556032324
 H         -4.6285425391       -2.3562822065       -1.4629908797
 H         -3.5834847261       -1.6774419900       -2.7161922816
 H         -5.3374284736       -1.6815760568       -2.9339390935
 H         -4.5675252174        1.8960150360       -2.0895122107
 H         -3.5514076221        0.8546874274       -3.0925934030
 H         -5.3059536051        0.8468483627       -3.3040013947
 H         -7.4370946134       -0.2523141534       -2.2117726810
 H         -9.2559356735        0.0143642201       -0.5696543355
 H         -8.7564027435        0.3546319273        1.8075784516
 H         -6.4174531978        0.4342621257        2.5994671061
 H         -3.8374415385        0.4387852284        2.9021966866
 H         -1.3770537281        0.3790057075        2.6681198267
 H         -1.0071506418       -2.3631863329        0.8738929419
 H          0.2160225523       -4.4870470100        1.0549413850
 H          2.6712660026       -4.5316326226        0.8267427518
 H          3.9163184264       -2.4606848928        0.4088834804
 H          4.2428456517       -0.5654458063       -2.0825609909
 H          6.6976240963       -0.6079964332       -2.3783069606
 H          7.1998201428        0.4478727200        1.7408120060
 H          4.7432759087        0.4945356943        2.0218138145
 H          3.9347737974        2.4206035195       -0.3005663813
 H          2.7075349947        4.5357846073       -0.4752858374
 H          0.2532255620        4.5783152205       -0.2316666280
 H         -0.9860056282        2.4988625554        0.1897094726
 H         -1.7299048378       -0.2262367938       -1.5434574321
