  112
  -188.088785000000       0.424999482406908      !
 N         -0.7956061555        3.6547456698        2.4019168620
 C         -0.5389508530        2.8367206576        1.6255073664
 C         -0.2416299080        1.8671353124        0.6782278081
 C          1.1139930119        1.5449260616        0.3593048049
 N          2.1478102147        2.2912572954        0.9414919640
 C          3.2490323487        1.7490077934        1.5744022665
 C          3.4354419384        0.4620955452        2.0571862270
 C          4.6574858707        0.1599508014        2.6295240537
 C          5.6574114494        1.1198288432        2.7450044993
 C          5.4479971001        2.4237379981        2.3294429085
 C          4.2323381509        2.7478715122        1.7496007792
 C          3.6713046273        3.9629485381        1.2219168349
 C          4.1503405807        5.2567285469        1.0961180493
 C          3.3433566738        6.2058260315        0.4947978356
 C          2.0805058276        5.8729283625        0.0120475615
 C          1.5845513906        4.5884812221        0.1210415198
 C          2.3814758187        3.6362105557        0.7411115651
 C          1.4124490220        0.4900279999       -0.4814965417
 N          2.7462339030        0.2288490756       -0.8284173875
 C          3.6408625593        1.1852138016       -1.2682060230
 C          3.3920290663        2.4532737988       -1.7709871166
 C          4.4801735979        3.2278382325       -2.1271237037
 C          5.7810898113        2.7461219248       -2.0105116053
 C          6.0316135132        1.4596054076       -1.5688887407
 C          4.9536083896        0.6671736939       -1.2048349087
 C          4.8261094273       -0.6800772376       -0.7320734716
 C          5.7219501848       -1.6930713623       -0.4325587131
 S          7.4572876209       -1.6300932475       -0.5703010751
 C          7.5844896445       -3.2790705692        0.0082223843
 C          8.7598196908       -3.9902831371        0.1738358424
 C          8.6826419573       -5.2905683949        0.6375756001
 C          7.4506137444       -5.8684059494        0.9304752583
 C          6.2800154646       -5.1575316489        0.7658376999
 C          6.3303820336       -3.8453006412        0.2995304210
 C          5.2522360172       -2.9282731384        0.0517961456
 C          3.8807074972       -3.1286635985        0.2458288654
 C          2.9742672934       -2.1314177051       -0.0289581131
 C          3.4462115562       -0.9158700874       -0.5244390484
 C          0.3742559640       -0.3231415283       -1.0379745596
 C          0.6648169880       -1.3019248613       -1.9778182520
 N          0.9087145638       -2.1316628657       -2.7457938482
 C         -0.9804247829       -0.0018855773       -0.7185629333
 N         -2.0111997328       -0.7607852839       -1.2948680289
 C         -2.2683373824       -2.0905913751       -1.0317646064
 C         -1.4811339151       -3.0309070411       -0.3820385336
 C         -2.0066894364       -4.2945009614       -0.1953092198
 C         -3.2891663132       -4.6186736427       -0.6307640316
 C         -4.0829828240       -3.6838088671       -1.2699296504
 C         -3.5724608421       -2.4126821492       -1.4777779882
 C         -4.1148985727       -1.2137985613       -2.0572960125
 C         -5.3320880054       -0.8929251715       -2.6365173394
 C         -5.5182897413        0.3924595484       -3.1153129273
 C         -4.4984260778        1.3364214365       -3.0558277596
 C         -3.2778237404        1.0398720725       -2.4769080397
 C         -3.1103870369       -0.2275217453       -1.9399627447
 C         -1.2796084880        1.0566841980        0.1185471619
 N         -2.6160558722        1.3234557572        0.4559474100
 C         -3.3315224074        2.4456489764        0.0897129491
 C         -2.8798124669        3.6687112536       -0.3850667089
 C         -3.8246444077        4.6184109438       -0.7198018451
 C         -5.1892717722        4.3618118367       -0.5984797581
 C         -5.6485971941        3.1418134147       -0.1405929780
 C         -4.7167202492        2.1754134661        0.2066944319
 C         -4.8272865263        0.8253490985        0.6745637838
 C         -5.8735198454       -0.0527950113        0.9090805240
 S         -7.5672410739        0.2414970787        0.6435972879
 C         -7.9521546255       -1.4006730676        1.1251436592
 C         -9.2167369019       -1.9603555004        1.1564703570
 C         -9.3427707145       -3.2794181056        1.5534937905
 C         -8.2227158846       -4.0235428596        1.9100781975
 C         -6.9622464403       -3.4623036438        1.8793890353
 C         -6.8097413697       -2.1346717035        1.4874464899
 C         -5.6062006082       -1.3574283635        1.3697017144
 C         -4.2950255779       -1.7482943731        1.6529815831
 C         -3.2389096386       -0.9006782149        1.4007178250
 C         -3.5090650326        0.3517984267        0.8536849201
 H          2.6505934145       -0.2769950331        2.0003897068
 H          4.8356530252       -0.8411377434        2.9928113026
 H          6.6040312384        0.8445986334        3.1846281950
 H          6.2137285692        3.1738858635        2.4531149670
 H          5.1343972429        5.5132014755        1.4573898317
 H          3.6964930996        7.2208730459        0.3919956672
 H          1.4762718037        6.6337625651       -0.4585925839
 H          0.6070999429        4.3410326623       -0.2618344934
 H          2.3843570751        2.8208764115       -1.8915515201
 H          4.3143997542        4.2257653829       -2.5035692127
 H          6.6055757566        3.3844676171       -2.2891694168
 H          7.0378656213        1.0744680763       -1.5082416819
 H          9.7104378491       -3.5352117821       -0.0571876030
 H          9.5879963130       -5.8628251940        0.7724167389
 H          7.4132473016       -6.8855443496        1.2904511600
 H          5.3267285449       -5.6099233498        0.9924139511
 H          3.5362649612       -4.0793850413        0.6215070118
 H          1.9205993117       -2.2914631337        0.1319801767
 H         -0.4893033782       -2.7888610455       -0.0342711648
 H         -1.4114239640       -5.0455295638        0.3020552015
 H         -3.6674141925       -5.6159024221       -0.4623315198
 H         -5.0820675232       -3.9321316719       -1.5942586218
 H         -6.1155400859       -1.6316426465       -2.7110430771
 H         -6.4638046440        0.6652945560       -3.5585523651
 H         -4.6612089895        2.3220426876       -3.4645749727
 H         -2.4810069657        1.7679193632       -2.4532123537
 H         -1.8266659724        3.8782960102       -0.4833417828
 H         -3.4987201874        5.5810496374       -1.0838026314
 H         -5.8959950816        5.1312091461       -0.8704324966
 H         -6.7045194823        2.9357652725       -0.0550103491
 H        -10.0797100036       -1.3771139129        0.8753470740
 H        -10.3207340081       -3.7352322284        1.5841959866
 H         -8.3431454675       -5.0526643241        2.2136219050
 H         -6.0943642732       -4.0425525513        2.1534343545
 H         -4.1100296457       -2.7316740250        2.0551404674
 H         -2.2250933863       -1.1972887476        1.6212254954
  112
  -188.088075250000       0.200544097920348      !
 N         -0.3410803853        2.5814878964        3.0162180594
 C         -0.2444930654        1.9488806281        2.0522672879
 C         -0.1284316472        1.1863714017        0.8991082537
 C          1.1542672669        0.8646862337        0.3580886086
 N          2.3056861140        1.3378912351        1.0131625016
 C          2.7529650896        0.9163270976        2.2490134881
 C          2.0927991664        0.1793531049        3.2227080168
 C          2.7967059794       -0.1542891976        4.3635917337
 C          4.1273741792        0.2209680368        4.5333387537
 C          4.7931699688        0.9471172577        3.5628324064
 C          4.1047162195        1.3026387372        2.4140061382
 C          4.4793394222        2.0049307650        1.2169112787
 C          5.6547502667        2.5907352237        0.7748273679
 C          5.6619269203        3.2047425137       -0.4658870509
 C          4.5091046937        3.2713717631       -1.2418013131
 C          3.3264077276        2.6889989664       -0.8232981258
 C          3.3328365559        2.0186064868        0.3907480098
 C          1.2664637115        0.1069153287       -0.7895004159
 N          2.5371089070       -0.1999800197       -1.3089512028
 C          3.0682525538        0.2925187683       -2.4842109759
 C          2.4321982518        0.9067606147       -3.5538965585
 C          3.2175762564        1.3399728115       -4.6040455344
 C          4.6024501199        1.1798785100       -4.5937629911
 C          5.2447865132        0.5833451258       -3.5259691280
 C          4.4757384380        0.1361876068       -2.4617366036
 C          4.7942078927       -0.4791819745       -1.2078482265
 C          5.9634019779       -0.8073167862       -0.5399434787
 S          7.5921409946       -0.5179859566       -1.0773713630
 C          8.2277540441       -1.1629768409        0.4249782909
 C          9.5650000350       -1.2518946974        0.7669531348
 C          9.8943563063       -1.7778057495        2.0034236281
 C          8.9023549293       -2.2043316155        2.8804320164
 C          7.5687332280       -2.1166697760        2.5358164894
 C          7.2118743611       -1.5950277150        1.2948524351
 C          5.9013550982       -1.3978162923        0.7382120824
 C          4.6653373546       -1.7157783633        1.3072990976
 C          3.4912123347       -1.3754923322        0.6724000710
 C          3.5662028338       -0.7032312408       -0.5456741604
 C          0.1023124201       -0.3832853163       -1.4631540065
 C          0.2174832001       -1.1515881238       -2.6124657320
 N          0.3194996834       -1.7911732727       -3.5710726458
 C         -1.1799217410       -0.0626676385       -0.9211714339
 N         -2.3319620889       -0.5334751576       -1.5762144652
 C         -2.7260433937       -1.8535807261       -1.6553311452
 C         -2.0091580857       -3.0075441949       -1.3695918027
 C         -2.6645699025       -4.2175500065       -1.4901418638
 C         -4.0023163919       -4.2850269567       -1.8720411979
 C         -4.7246150339       -3.1382429646       -2.1477522554
 C         -4.0859507489       -1.9130195695       -2.0437226241
 C         -4.5218535740       -0.5542528037       -2.2193715079
 C         -5.7298055542        0.0310235758       -2.5635058162
 C         -5.7952628966        1.4110927728       -2.6507127375
 C         -4.6690886491        2.1996560630       -2.4375078287
 C         -3.4545660965        1.6378702327       -2.0885156664
 C         -3.4014236133        0.2601073137       -1.9390369098
 C         -1.2925477293        0.7013181326        0.2220441663
 N         -2.5636148187        1.0075766863        0.7405991526
 C         -3.1472678428        2.2585152706        0.7559639818
 C         -2.5686021681        3.5074107167        0.5780274368
 C         -3.4003512548        4.6094023499        0.6068279308
 C         -4.7754181312        4.4807683537        0.7970691525
 C         -5.3609565565        3.2403309337        0.9609046208
 C         -4.5443544871        2.1192761472        0.9401943651
 C         -4.8007089140        0.7134243132        1.0399837799
 C         -5.9354277407       -0.0755946363        1.1418976242
 S         -7.5881226743        0.4663607037        1.1613611721
 C         -8.1558613851       -1.1917797078        1.2308512579
 C         -9.4787532576       -1.5939043826        1.2638184631
 C         -9.7535741882       -2.9489677026        1.3097208435
 C         -8.7221293808       -3.8822829579        1.3196815361
 C         -7.4027459492       -3.4782643570        1.2881799224
 C         -7.1001470722       -2.1195499422        1.2466063123
 C         -5.8142851899       -1.4783825106        1.2012324300
 C         -4.5507403286       -2.0750189497        1.2178456819
 C         -3.4108278675       -1.3114303116        1.0952722463
 C         -3.5475887121        0.0671992268        0.9464287066
 H          1.0636771975       -0.1203380092        3.1007454581
 H          2.3043752662       -0.7212957227        5.1392116879
 H          4.6444598733       -0.0626904504        5.4378977606
 H          5.8277366659        1.2274715853        3.6898337335
 H          6.5436088057        2.5658396453        1.3868254254
 H          6.5715117838        3.6548582695       -0.8335134557
 H          4.5363476633        3.7822603846       -2.1922042825
 H          2.4294822411        2.7594107683       -1.4201776424
 H          1.3615135086        1.0364217071       -3.5729939617
 H          2.7472514324        1.8140303851       -5.4522199345
 H          5.1794727739        1.5320630990       -5.4355124211
 H          6.3176542901        0.4665430190       -3.5099537912
 H         10.3278685994       -0.9158128888        0.0821646407
 H         10.9321122261       -1.8550928461        2.2899212133
 H          9.1811038936       -2.6078718860        3.8422683302
 H          6.8006575848       -2.4449839196        3.2193431211
 H          4.6338990586       -2.2139953052        2.2631787722
 H          2.5347800518       -1.6187084237        1.1088375500
 H         -0.9736013844       -2.9671128479       -1.0699219309
 H         -2.1274557501       -5.1306188859       -1.2820619340
 H         -4.4800174128       -5.2500092829       -1.9524380923
 H         -5.7643512294       -3.1911090681       -2.4329137326
 H         -6.5990918987       -0.5787782492       -2.7575555916
 H         -6.7306564488        1.8859454038       -2.9047857387
 H         -4.7423925182        3.2714776494       -2.5416234915
 H         -2.5781381789        2.2515319869       -1.9438930571
 H         -1.5060998261        3.6192957294        0.4296292055
 H         -2.9751772681        5.5932180553        0.4779973312
 H         -5.3900393719        5.3681721899        0.8126970406
 H         -6.4263036108        3.1358508344        1.0985816972
 H        -10.2726424859       -0.8633651106        1.2530163240
 H        -10.7795678706       -3.2836877487        1.3357739697
 H         -8.9585801375       -4.9351885209        1.3525990937
 H         -6.6045082194       -4.2047226081        1.2933410412
 H         -4.4715158326       -3.1465220455        1.3105643522
 H         -2.4338519762       -1.7691232876        1.1120497036
  112
  -188.087947050000       0.175102861917210      !
 N         -0.3302722131        2.5532228240        2.9834827096
 C         -0.2318539841        1.9102924111        2.0268524547
 C         -0.1183991928        1.1393593134        0.8789462629
 C          1.1629816578        0.7986125602        0.3459313571
 N          2.3107446089        1.2576716104        1.0162549783
 C          2.7185244153        0.8438619685        2.2685274540
 C          2.0292381000        0.1089839830        3.2234069565
 C          2.6955958216       -0.2153639747        4.3892799109
 C          4.0182679571        0.1660914074        4.6012335539
 C          4.7147487718        0.8859992947        3.6475742555
 C          4.0641645142        1.2311700361        2.4737587876
 C          4.4779044103        1.9209782238        1.2823415728
 C          5.6696460795        2.4959192487        0.8712391781
 C          5.7189397636        3.0960747752       -0.3751673002
 C          4.5906977244        3.1616259973       -1.1866433943
 C          3.3919885944        2.5913701289       -0.7988521526
 C          3.3575168555        1.9312961437        0.4204966393
 C          1.2710273966        0.0361328550       -0.7994303807
 N          2.5377308634       -0.2733419313       -1.3268705630
 C          3.0514717114        0.2158819687       -2.5127813345
 C          2.3976787552        0.8094879235       -3.5831768487
 C          3.1673369202        1.2416675192       -4.6456856159
 C          4.5542455311        1.1027241836       -4.6461249645
 C          5.2146342022        0.5307947052       -3.5758298961
 C          4.4613704189        0.0846945862       -2.5000079280
 C          4.8011688938       -0.5054031680       -1.2395691180
 C          5.9817030073       -0.7789051551       -0.5676239127
 S          7.5979405719       -0.4331603499       -1.1095088027
 C          8.2551521924       -1.0008038620        0.4144099847
 C          9.5924986688       -1.0071032077        0.7673247490
 C          9.9395783287       -1.4743087318        2.0223758303
 C          8.9647757264       -1.9257461402        2.9062779213
 C          7.6311698696       -1.9214201131        2.5505153809
 C          7.2567242878       -1.4588264414        1.2913711390
 C          5.9413421677       -1.3401411657        0.7244351076
 C          4.7176829168       -1.6954225969        1.2989439303
 C          3.5318602629       -1.4074215657        0.6602516052
 C          3.5825110070       -0.7492533897       -0.5670451856
 C          0.1024986591       -0.4456053822       -1.4727167383
 C          0.2106299764       -1.2309060802       -2.6112501672
 N          0.3010843331       -1.8904343025       -3.5573748745
 C         -1.1782810250       -0.1012574919       -0.9412693399
 N         -2.3365771351       -0.5460987781       -1.6035939781
 C         -2.7700743908       -1.8539812056       -1.6785640117
 C         -2.0885147325       -3.0278607500       -1.3877487658
 C         -2.7802902888       -4.2179835054       -1.5036183480
 C         -4.1190876601       -4.2464931183       -1.8866602926
 C         -4.8057879933       -3.0796035779       -2.1689815030
 C         -4.1305216336       -1.8738627271       -2.0693512362
 C         -4.5246526610       -0.5032902675       -2.2530303631
 C         -5.7128004006        0.1172645754       -2.6041244811
 C         -5.7358187668        1.4983756340       -2.6972357963
 C         -4.5873936326        2.2533610590       -2.4818298918
 C         -3.3921065167        1.6561123020       -2.1254114320
 C         -3.3811856560        0.2777643281       -1.9720585952
 C         -1.2857242522        0.6700479672        0.1971764008
 N         -2.5550018980        0.9921450270        0.7099995450
 C         -3.1290130908        2.2471585077        0.7246413307
 C         -2.5415774004        3.4916470265        0.5445266399
 C         -3.3649351925        4.5998213212        0.5765928089
 C         -4.7402138988        4.4814735851        0.7720143347
 C         -5.3344045177        3.2455034690        0.9388986997
 C         -4.5263331516        2.1184019451        0.9157614851
 C         -4.7921771353        0.7147819589        1.0232736763
 C         -5.9308471365       -0.0659348218        1.1452510504
 S         -7.5796292805        0.4869462885        1.1849249165
 C         -8.1568180694       -1.1665453628        1.2839359989
 C         -9.4815153854       -1.5594944313        1.3470017170
 C         -9.7639621250       -2.9120072012        1.4156127003
 C         -8.7384529312       -3.8519664256        1.4180682963
 C         -7.4173519066       -3.4570995783        1.3562002013
 C         -7.1069778583       -2.1010027682        1.2918153079
 C         -5.8179348718       -1.4688851494        1.2168790633
 C         -4.5584120314       -2.0740495794        1.2217814680
 C         -3.4150403273       -1.3190019541        1.0803182354
 C         -3.5443572777        0.0594961001        0.9243647761
 H          1.0062524988       -0.1968922129        3.0689839400
 H          2.1792486953       -0.7795189730        5.1513161176
 H          4.5053931734       -0.1099441440        5.5245390293
 H          5.7447524344        1.1675720633        3.8055931869
 H          6.5386357627        2.4732873629        1.5113672233
 H          6.6422761598        3.5363634922       -0.7195475327
 H          4.6506769030        3.6615315803       -2.1413844538
 H          2.5147962285        2.6609007167       -1.4243588255
 H          1.3252071525        0.9234868266       -3.5956033275
 H          2.6819383842        1.6969276811       -5.4956455189
 H          5.1184820299        1.4529018628       -5.4972720961
 H          6.2894664288        0.4332237272       -3.5660042058
 H         10.3417475213       -0.6526454135        0.0767126113
 H         10.9776183902       -1.4855138207        2.3181297877
 H          9.2568849178       -2.2810439235        3.8830536825
 H          6.8760842205       -2.2668649752        3.2400932584
 H          4.7045809252       -2.1763920536        2.2640886531
 H          2.5847644936       -1.6734073948        1.1037136389
 H         -1.0525772000       -3.0172010396       -1.0868940092
 H         -2.2713197392       -5.1460146298       -1.2908935159
 H         -4.6256470686       -5.1968741192       -1.9649280119
 H         -5.8455998729       -3.1026426525       -2.4578139564
 H         -6.5997373671       -0.4663257808       -2.7986631853
 H         -6.6552710442        2.0004892654       -2.9569706669
 H         -4.6278149494        3.3264906626       -2.5904107833
 H         -2.4977568926        2.2429522607       -1.9792528805
 H         -1.4787019595        3.5955242682        0.3928024010
 H         -2.9327847295        5.5804919578        0.4468326105
 H         -5.3480949233        5.3734301397        0.7905214506
 H         -6.3998301048        3.1492506477        1.0819559368
 H        -10.2706497700       -0.8238368270        1.3449881586
 H        -10.7910483757       -3.2395088427        1.4705143095
 H         -8.9809189625       -4.9026961112        1.4714374505
 H         -6.6237085381       -4.1885997728        1.3552058609
 H         -4.4851599047       -3.1451767133        1.3232977857
 H         -2.4407303811       -1.7826364243        1.0915300628
  112
  -188.087787410000       0.147886244376085      !
 N         -0.3813871589        2.8250300101        2.8708772527
 C         -0.2722525466        2.1695064742        1.9237248462
 C         -0.1463084974        1.3855609811        0.7861601450
 C          1.1415155043        1.0471502910        0.2690366827
 N          2.2859867602        1.4783068095        0.9624757540
 C          2.6689556003        1.0395124200        2.2144733211
 C          1.9442691022        0.3287579719        3.1613768123
 C          2.5894814282       -0.0294271612        4.3292747007
 C          3.9252439512        0.2961806594        4.5513939801
 C          4.6560292269        0.9931803523        3.6064924514
 C          4.0274754964        1.3721511690        2.4311183733
 C          4.4751239859        2.0576776426        1.2492026553
 C          5.6883989993        2.5972009891        0.8533083483
 C          5.7675544187        3.2086570967       -0.3861522968
 C          4.6492340218        3.3188701568       -1.2063542579
 C          3.4293971130        2.7846489708       -0.8335693992
 C          3.3625791897        2.1158612739        0.3796241049
 C          1.2657362633        0.2953203201       -0.8812164218
 N          2.5422989608       -0.0555567886       -1.3560045089
 C          3.1404463658        0.4063203548       -2.5103091720
 C          2.5776295669        1.0569338892       -3.5994467873
 C          3.4221159738        1.4431381181       -4.6215103500
 C          4.7939590092        1.2017282690       -4.5647297828
 C          5.3637300225        0.5671519641       -3.4777885535
 C          4.5343879375        0.1653600021       -2.4413211767
 C          4.7726708110       -0.4739848941       -1.1814116548
 C          5.8950218278       -0.8952219695       -0.4857553952
 S          7.5549768292       -0.7361157406       -0.9808837556
 C          8.0976972877       -1.4627746611        0.5206255078
 C          9.4136713960       -1.6829259814        0.8850539504
 C          9.6674978327       -2.2639973932        2.1145331760
 C          8.6226127871       -2.6146236813        2.9632769971
 C          7.3103109889       -2.3950824013        2.5967452958
 C          7.0286764323       -1.8165168426        1.3616624730
 C          5.7532331271       -1.4956317848        0.7814500227
 C          4.4818158602       -1.7209279025        1.3156446995
 C          3.3543388924       -1.2923893164        0.6507170202
 C          3.5123082089       -0.6216653361       -0.5603545875
 C          0.1078431651       -0.1701543166       -1.5832976639
 C          0.2323073755       -0.9022406809       -2.7550354142
 N          0.3371539866       -1.5113849400       -3.7329600428
 C         -1.1783143321        0.1158282732       -1.0315516312
 N         -2.3195524339       -0.4036488339       -1.6672719246
 C         -2.6440490348       -1.7435299823       -1.7457079863
 C         -1.8598539872       -2.8591110127       -1.4856763734
 C         -2.4521050269       -4.1021185826       -1.5984813523
 C         -3.7934364597       -4.2394887971       -1.9470527438
 C         -4.5829818563       -3.1314057290       -2.1952122494
 C         -4.0084108224       -1.8741822679       -2.0984798101
 C         -4.5218690547       -0.5399562924       -2.2511601435
 C         -5.7691280418       -0.0201989668       -2.5576928397
 C         -5.9131414730        1.3546976424       -2.6308603590
 C         -4.8265924884        2.2026513273       -2.4412014286
 C         -3.5737066937        1.7064930853       -2.1305206599
 C         -3.4403374814        0.3326862293       -1.9941028321
 C         -1.3027326351        0.8725033282        0.1154597911
 N         -2.5761122386        1.1155957280        0.6610830360
 C         -3.2275663149        2.3310256213        0.7059724167
 C         -2.7257041788        3.6114590956        0.5192382435
 C         -3.6161474402        4.6648044085        0.5871924465
 C         -4.9742562968        4.4577186399        0.8242603706
 C         -5.4837401739        3.1852595402        0.9977039128
 C         -4.6073492175        2.1118976957        0.9385374514
 C         -4.7804655288        0.6931168508        1.0386736752
 C         -5.8626888953       -0.1606954677        1.1828306450
 S         -7.5420065266        0.2834937033        1.2760367878
 C         -8.0083123209       -1.4050738165        1.3677190745
 C         -9.3024027894       -1.8843694315        1.4616230581
 C         -9.4946377999       -3.2532789909        1.5172413209
 C         -8.4109054833       -4.1245970165        1.4765735079
 C         -7.1205281001       -3.6437457173        1.3841443675
 C         -6.9006577393       -2.2694979503        1.3320627641
 C         -5.6577830673       -1.5542407014        1.2319914652
 C         -4.3625683342       -2.0774152424        1.1946520012
 C         -3.2746470301       -1.2487649436        1.0317927847
 C         -3.4970249657        0.1200019022        0.8958043988
 H          0.9098426829        0.0681279985        3.0007158222
 H          2.0448525156       -0.5741419928        5.0857674218
 H          4.3953071096       -0.0049284432        5.4756993392
 H          5.6950324990        1.2331191905        3.7736112565
 H          6.5513168372        2.5383117248        1.4989870840
 H          6.7072804237        3.6233046325       -0.7177302242
 H          4.7329512237        3.8282186697       -2.1542573345
 H          2.5588421418        2.8921479534       -1.4627477081
 H          1.5175305210        1.2483699915       -3.6538749453
 H          3.0096639405        1.9439780006       -5.4842154183
 H          5.4188217786        1.5193042671       -5.3858025360
 H          6.4266170848        0.3868681587       -3.4263925715
 H         10.2181776026       -1.4063858030        0.2216264383
 H         10.6874837174       -2.4453733657        2.4173848596
 H          8.8429671760       -3.0638486916        3.9200130167
 H          6.5014596996       -2.6656334244        3.2581992265
 H          4.3868159489       -2.2225928782        2.2655597578
 H          2.3708236125       -1.4706107858        1.0573625555
 H         -0.8210381679       -2.7663148349       -1.2095187805
 H         -1.8618726753       -4.9856746141       -1.4072747205
 H         -4.2210467704       -5.2282526086       -2.0205597306
 H         -5.6256955664       -3.2383742469       -2.4526771902
 H         -6.6082245608       -0.6760645804       -2.7333507255
 H         -6.8800506283        1.7789522725       -2.8546648033
 H         -4.9618851572        3.2694724420       -2.5339670372
 H         -2.7286590097        2.3666114404       -2.0059211124
 H         -1.6767607543        3.7829729613        0.3355003063
 H         -3.2512326226        5.6719895077        0.4542054016
 H         -5.6362412515        5.3091939597        0.8717785900
 H         -6.5358364203        3.0207325992        1.1734963971
 H        -10.1374454777       -1.2018649490        1.4896571022
 H        -10.4966944678       -3.6477914966        1.5909107176
 H         -8.5834830043       -5.1897857222        1.5169677011
 H         -6.2814713975       -4.3219030653        1.3507173307
 H         -4.2181915766       -3.1428703254        1.2786249666
 H         -2.2727589285       -1.6489168316        1.0087293103
  112
  -188.086789960000       5.146731337944891E-002 !
 N         -1.2905409108        2.8009805030        2.6235178847
 C         -0.9143310083        2.1834083396        1.7199594559
 C         -0.4699757397        1.4389123530        0.6377307877
 C          0.9273411540        1.2760901759        0.3789334729
 N          1.8576304115        1.8721608466        1.2467872925
 C          2.9004645177        1.1995472835        1.8489352323
 C          3.0753505573       -0.1660536238        2.0190879961
 C          4.2334188137       -0.5935578444        2.6422306513
 C          5.1805774597        0.3141413365        3.1047080479
 C          4.9771460725        1.6796022585        2.9951751542
 C          3.8243313741        2.1310302810        2.3736990541
 C          3.2828551890        3.4344420979        2.0948812716
 C          3.7256202825        4.7232996110        2.3435310645
 C          2.9525835306        5.7840311585        1.9061245485
 C          1.7585545007        5.5697791827        1.2226972331
 C          1.2992607998        4.2942109539        0.9571036009
 C          2.0648439808        3.2266847871        1.4053104611
 C          1.3665006778        0.5320154741       -0.6956006484
 N          2.7470863584        0.4048459717       -0.9354213713
 C          3.6154758900        1.4741663219       -1.0074421572
 C          3.3353090482        2.8149456091       -1.2264897257
 C          4.3975987159        3.6982157195       -1.2399006457
 C          5.7072283178        3.2589935678       -1.0597723066
 C          5.9971899277        1.9174918120       -0.8928422104
 C          4.9451788884        1.0136808913       -0.8758215643
 C          4.8585959189       -0.4097907174       -0.7389422130
 C          5.7792672125       -1.4232710125       -0.5278419739
 S          7.5037155887       -1.2504259055       -0.3605080471
 C          7.6756068953       -2.9781760368       -0.1206244964
 C          8.8651636264       -3.6503966382        0.0959661642
 C          8.8245061588       -5.0222905670        0.2654810333
 C          7.6145562805       -5.7076783735        0.2183867151
 C          6.4291576246       -5.0350313401        0.0031949261
 C          6.4428229060       -3.6527964298       -0.1699019579
 C          5.3432806285       -2.7552956933       -0.3993360140
 C          3.9795855778       -3.0569964486       -0.4822685504
 C          3.0442056463       -2.0652730233       -0.6720730360
 C          3.4856238504       -0.7483495537       -0.7968746309
 C          0.4399579331       -0.1059250737       -1.5789846029
 C          0.8849646559       -0.8644996143       -2.6510700471
 N          1.2633318631       -1.4985234695       -3.5419711062
 C         -0.9573950846        0.0499984925       -1.3153519807
 N         -1.8866642063       -0.5841945312       -2.1570126857
 C         -2.9094895235       -1.3974398919       -1.7153132937
 C         -3.0558143292       -2.0270859264       -0.4878761775
 C         -4.1995916849       -2.7764213027       -0.2815573635
 C         -5.1604285907       -2.9148974510       -1.2777770657
 C         -4.9844094004       -2.3430076811       -2.5266834596
 C         -3.8461515575       -1.5876056978       -2.7561198918
 C         -3.3333144049       -0.8719099381       -3.8939106120
 C         -3.7986961841       -0.6729653104       -5.1834519257
 C         -3.0515229131        0.1133682203       -6.0422072590
 C         -1.8611533473        0.7029777630       -5.6249476081
 C         -1.3799466393        0.5251038642       -4.3422129354
 C         -2.1191254419       -0.2740785803       -3.4810894089
 C         -1.3965004976        0.8000751832       -0.2449906897
 N         -2.7770171052        0.9472171940       -0.0165267766
 C         -3.6785481929        1.3529329890       -0.9782984231
 C         -3.4435896673        2.0183462988       -2.1725493154
 C         -4.5326375500        2.3001092061       -2.9746742639
 C         -5.8249011298        1.9480213992       -2.5918715868
 C         -6.0705915239        1.3310645708       -1.3792033364
 C         -4.9911509981        1.0381462893       -0.5590227470
 C         -4.8588510575        0.4301242753        0.7314309235
 C         -5.7438075635       -0.1394014247        1.6325073752
 S         -7.4688051511       -0.2896734228        1.4502155711
 C         -7.5825754961       -1.1104630047        2.9947841855
 C         -8.7459702535       -1.5808150479        3.5772182809
 C         -8.6596361407       -2.2077047350        4.8068755874
 C         -7.4306395191       -2.3595101656        5.4413669112
 C         -6.2713764717       -1.8904971164        4.8581127869
 C         -6.3311044336       -1.2564647121        3.6191089789
 C         -5.2646365144       -0.7015038249        2.8305810759
 C         -3.8941505191       -0.6877388915        3.1118486373
 C         -2.9934123241       -0.1459866876        2.2232299299
 C         -3.4774678724        0.4070190707        1.0380761710
 H          2.3287332950       -0.8716158745        1.6869299383
 H          4.4032469584       -1.6522699121        2.7697421796
 H          6.0800939403       -0.0559357179        3.5729773564
 H          5.6999242646        2.3793616276        3.3854089607
 H          4.6555472598        4.8916163891        2.8647467981
 H          3.2785755795        6.7960483959        2.0938637940
 H          1.1787025957        6.4181685711        0.8920343033
 H          0.3727464193        4.1392887723        0.4265034434
 H          2.3241257808        3.1562794776       -1.3884442971
 H          4.2062151880        4.7494945749       -1.3923604846
 H          6.5093741904        3.9811520449       -1.0679050572
 H          7.0140881087        1.5742349700       -0.7801923713
 H          9.7990294428       -3.1111052273        0.1286586668
 H          9.7417479967       -5.5657241185        0.4341780311
 H          7.6052761655       -6.7790366613        0.3513461145
 H          5.4931045405       -5.5710414672       -0.0342080095
 H          3.6612049053       -4.0832498745       -0.3871532096
 H          1.9942922319       -2.3050401315       -0.7261129245
 H         -2.2987391230       -1.9445564547        0.2773893824
 H         -4.3474570172       -3.2605344866        0.6722635490
 H         -6.0482111489       -3.4950058296       -1.0763455023
 H         -5.7168197837       -2.4820540191       -3.3068071017
 H         -4.7259258013       -1.1212221417       -5.5059655175
 H         -3.3950335778        0.2766009390       -7.0526803129
 H         -1.3017456728        1.3133082806       -6.3176849425
 H         -0.4568831591        0.9873695133       -4.0288162750
 H         -2.4464269297        2.3127223482       -2.4627740855
 H         -4.3762449067        2.8026070439       -3.9170779336
 H         -6.6488704136        2.1776536043       -3.2501474415
 H         -7.0743117152        1.0822029231       -1.0706567558
 H         -9.6948011884       -1.4568653060        3.0789630892
 H         -9.5558625665       -2.5805740298        5.2789586295
 H         -7.3857509530       -2.8495196510        6.4023429542
 H         -5.3204170872       -2.0091585322        5.3546066238
 H         -3.5425536935       -1.1175605858        4.0366673903
 H         -1.9377214172       -0.1481801384        2.4429732179
