  119
  -189.588536141300       0.432659867878677      !
 C         -0.0183333944       -7.9296778720       -0.4861872437
 C         -1.2058626260       -7.2426827879       -0.2849449547
 C         -1.2036922353       -5.8639667332       -0.2048794244
 C         -0.0055583175       -5.1609541723       -0.3243847576
 C          0.0012623122       -3.7025208646       -0.2463931134
 N         -1.1706173444       -3.0768676928       -0.1327396411
 C         -1.1157199256       -1.7518258687       -0.0936949819
 C         -2.3476841428       -0.9678784023        0.0061602621
 C         -3.5977446323       -1.5628325711       -0.1021885933
 C         -4.7402373266       -0.7719685509       -0.0326043467
 N         -6.0037415135       -1.3661381633       -0.1094671695
 C         -7.0548275587       -0.9550897776       -0.9071250645
 C         -7.1103468353        0.0660541266       -1.8448954169
 C         -8.2948798486        0.2471066806       -2.5334274295
 C         -9.4003659715       -0.5698170830       -2.3084363702
 C         -9.3424706556       -1.6052938690       -1.3972192723
 C         -8.1628882617       -1.8066176320       -0.6931085614
 C         -7.7529925576       -2.7740501596        0.2862489662
 C         -8.3976118835       -3.8378925718        0.9036534416
 C         -7.7049385723       -4.5755749906        1.8427466141
 C         -6.3920196769       -4.2535890151        2.1791386908
 C         -5.7301041754       -3.1993762436        1.5788901491
 C         -6.4128324605       -2.4700667381        0.6158866615
 C         -4.6292977187        0.6101500154        0.1009665325
 C         -3.3732308678        1.2043193772        0.1964912035
 N         -3.2374834469        2.5913967741        0.2927976545
 C         -2.3402973481        3.3547829432       -0.4365117372
 C         -1.4187671552        2.9683780131       -1.3991990718
 C         -0.6520415854        3.9522920058       -1.9935221784
 C         -0.8078135592        5.2954076566       -1.6634618878
 C         -1.7424840058        5.6897805621       -0.7281296546
 C         -2.5121427050        4.7170707398       -0.1048270562
 C         -3.5481835241        4.7698708247        0.8884460435
 C         -4.1237611556        5.8073144709        1.6093408051
 C         -5.0998382394        5.5064489725        2.5384096709
 C         -5.4892985280        4.1885294923        2.7642344308
 C         -4.9305439117        3.1391349206        2.0591185978
 C         -3.9692492070        3.4375729106        1.1041687642
 C         -2.2366096302        0.4077209417        0.1791255844
 N          0.0121341405       -1.0539595807       -0.1529287578
 C          1.1351987639       -1.7568475679       -0.2376243292
 C          2.3729891231       -0.9757451556       -0.2388807178
 C          2.2783481071        0.3989258815       -0.4262357904
 C          3.4086416261        1.1977275873       -0.3223383549
 N          3.2773114192        2.5845297160       -0.4277310495
 C          2.3090014158        3.3378562630        0.2159786316
 C          1.3082610486        2.9394079509        1.0908117040
 C          0.4892498262        3.9154119473        1.6251703589
 C          0.6660058281        5.2614992956        1.3182744808
 C          1.6729663125        5.6669015942        0.4663605877
 C          2.5013173481        4.7028829044       -0.0921994715
 C          3.6298327864        4.7679273170       -0.9786470463
 C          4.2701621241        5.8130099415       -1.6305969381
 C          5.3402352652        5.5236044034       -2.4538155510
 C          5.7618201573        4.2098159187       -2.6431700514
 C          5.1400969008        3.1528324472       -2.0054555400
 C          4.0811422952        3.4398397996       -1.1563127529
 C          4.6472855615        0.6075871052       -0.0835515945
 C          4.7447057241       -0.7731585098        0.0724260732
 N          5.9887224379       -1.3595468706        0.3247871587
 C          6.9096508352       -0.9399413771        1.2664281269
 C          6.8283401133        0.0949218171        2.1871459966
 C          7.8950889685        0.2811536110        3.0457915141
 C          9.0166464137       -0.5436471437        3.0034041304
 C          9.0913037070       -1.5926379568        2.1089944579
 C          8.0312748138       -1.7998758519        1.2364752508
 C          7.7660351477       -2.7839000846        0.2243145680
 C          8.4860940015       -3.8649397231       -0.2666078705
 C          7.9342334546       -4.6204793750       -1.2816288522
 C          6.6887494537       -4.2995939953       -1.8167748784
 C          5.9542437047       -3.2280368608       -1.3456943140
 C          6.4926727595       -2.4804441021       -0.3082700264
 C          3.6042038560       -1.5677449329        0.0082905710
 N          1.1803280951       -3.0810774902       -0.2922705829
 C          1.1863395656       -5.8566612604       -0.5245481335
 C          1.1757302394       -7.2352182989       -0.6055119804
 H         -0.0233636554       -9.0079273334       -0.5499604605
 H         -2.1346696462       -7.7859391149       -0.1918709634
 H         -2.1182873723       -5.3131536943       -0.0488203771
 H         -3.6689286739       -2.6262369593       -0.2613627200
 H         -6.2549812225        0.6925437916       -2.0468878630
 H         -8.3629920866        1.0384636585       -3.2651086077
 H        -10.3088442037       -0.3935595452       -2.8645802235
 H        -10.1922356679       -2.2509596114       -1.2354378103
 H         -9.4204953377       -4.0759953394        0.6541556473
 H         -8.1864154117       -5.4082858550        2.3332399417
 H         -5.8803716129       -4.8386147055        2.9289770320
 H         -4.7189012479       -2.9493021172        1.8614469013
 H         -5.5192088342        1.2191551646        0.1263268408
 H         -1.3073425443        1.9355108608       -1.6910749437
 H          0.0817371274        3.6736629809       -2.7356279884
 H         -0.1906910610        6.0331363451       -2.1532161289
 H         -1.8767172668        6.7323304858       -0.4827855762
 H         -3.8075251465        6.8265519365        1.4467599611
 H         -5.5623521965        6.2984487887        3.1081591105
 H         -6.2415444365        3.9803587281        3.5106728875
 H         -5.2254073875        2.1211557906        2.2632904556
 H         -1.2603125118        0.8443306109        0.3048268121
 H          1.3201912937        0.8345515463       -0.6543034347
 H          1.1782338842        1.9035216274        1.3640107492
 H         -0.3026827668        3.6290924737        2.3017520691
 H          0.0074253323        5.9926984448        1.7616028549
 H          1.8208791829        6.7116418860        0.2389043844
 H          3.9314773796        6.8292237463       -1.4971362629
 H          5.8541598961        6.3218955241       -2.9680116791
 H          6.5904648454        4.0112924150       -3.3067385100
 H          5.4631456846        2.1378255378       -2.1797844594
 H          5.5325067206        1.2194099598       -0.0096242414
 H          5.9561821431        0.7277570677        2.2481658375
 H          7.8551111857        1.0821038526        3.7691768894
 H          9.8308786330       -0.3628538211        3.6890284732
 H          9.9512447658       -2.2447319618        2.0884808971
 H          9.4579466436       -4.1031971280        0.1382642114
 H          8.4754827035       -5.4677136913       -1.6752619136
 H          6.2891545585       -4.8998218327       -2.6206964972
 H          4.9979379331       -2.9792966631       -1.7799358000
 H          3.6593352387       -2.6303072077        0.1802395868
 H          2.1057894638       -5.2996195732       -0.6173702200
 H          2.0993354391       -7.7726668166       -0.7627588224
  119
  -189.588442680100       0.391917647596474      !
 C          0.0337450734       -7.9222932497       -0.5102343574
 C          1.2052675317       -7.2381143420       -0.2238241295
 C          1.2049713779       -5.8582877622       -0.1652150131
 C          0.0251962098       -5.1509434317       -0.3942031761
 C          0.0212404407       -3.6917402601       -0.3317557022
 N         -1.1377861795       -3.0600890460       -0.5211245773
 C         -1.0898646697       -1.7359579326       -0.4586657867
 C         -2.3146652417       -0.9474662753       -0.6031736725
 C         -3.5659597568       -1.5498045914       -0.6244499038
 C         -4.7069138713       -0.7547967714       -0.6594932911
 N         -5.9719446684       -1.3520786200       -0.6364088286
 C         -7.0343176341       -1.0458993579       -1.4641230209
 C         -7.0957283106       -0.1705210417       -2.5380320353
 C         -8.2906895700       -0.0688847517       -3.2238196414
 C         -9.4015050219       -0.8280798551       -2.8635936800
 C         -9.3383180529       -1.7241504693       -1.8151974000
 C         -8.1479257725       -1.8412913815       -1.1103140990
 C         -7.7289199016       -2.6635755934       -0.0098683399
 C         -8.3731217341       -3.6186829935        0.7654746313
 C         -7.6708952490       -4.2228326135        1.7888232669
 C         -6.3487091508       -3.8729214809        2.0528713721
 C         -5.6871277215       -2.9250076134        1.2957632054
 C         -6.3793355158       -2.3331340701        0.2491057033
 C         -4.5949605184        0.6338911228       -0.6688798745
 C         -3.3378369582        1.2332554104       -0.6775553330
 N         -3.1988210730        2.6233503544       -0.6437497403
 C         -3.8868128406        3.5414599483       -1.4134339716
 C         -4.7990080632        3.3335598369       -2.4371506837
 C         -5.3240032936        4.4418404594       -3.0739302650
 C         -4.9460524605        5.7329837409       -2.7141718995
 C         -4.0174006488        5.9466829820       -1.7149098102
 C         -3.4779861739        4.8477857701       -1.0601131942
 C         -2.4974847699        4.7028982186       -0.0206691111
 C         -1.7694974681        5.6139722294        0.7324773066
 C         -0.8973554910        5.1353767911        1.6885562682
 C         -0.7598938858        3.7678230398        1.9076835403
 C         -1.4840434519        2.8429746702        1.1800422817
 C         -2.3449152390        3.3159240970        0.1998935923
 C         -2.2004204790        0.4370764932       -0.6627843694
 N          0.0179505253       -1.0432426048       -0.2216746610
 C          1.1243214445       -1.7511496862       -0.0297441973
 C          2.3372364537       -0.9803953767        0.2465149638
 C          2.2047357374        0.3771395153        0.5168108556
 C          3.3318861718        1.1637486852        0.7116021471
 N          3.1820464469        2.5387054527        0.9081041465
 C          3.8257335976        3.3123141760        1.8552390408
 C          4.6901745807        2.9327323638        2.8719913760
 C          5.1714959165        3.9182245232        3.7131887882
 C          4.7996334845        5.2515515812        3.5598550744
 C          3.9177903232        5.6314467678        2.5676680314
 C          3.4205618046        4.6590897260        1.7106587146
 C          2.4876025688        4.6921264773        0.6191495127
 C          1.7789718791        5.7156723383        0.0049172321
 C          0.9457663183        5.4035170647       -1.0496957212
 C          0.8309904938        4.0930705615       -1.5042576026
 C          1.5387408811        3.0605855941       -0.9193128059
 C          2.3572049304        3.3627773504        0.1595832958
 C          4.5931988002        0.5733335767        0.6913807512
 C          4.7217835786       -0.7934613813        0.4545226809
 N          5.9883472510       -1.3854162911        0.4475020300
 C          7.1103071516       -0.9090984568       -0.2043422447
 C          7.2519558127        0.1911332456       -1.0377841668
 C          8.4961839271        0.4265100371       -1.5912559698
 C          9.5779583989       -0.4123857848       -1.3346938864
 C          9.4362861843       -1.5251931450       -0.5302087172
 C          8.1951623463       -1.7829284932        0.0361633576
 C          7.6949790355       -2.8356914025        0.8754804754
 C          8.2793580642       -3.9592000583        1.4451531808
 C          7.5000484938       -4.7819470564        2.2334717980
 C          6.1596744508       -4.4856226959        2.4700028723
 C          5.5569667825       -3.3721265249        1.9161985817
 C          6.3281723512       -2.5561215686        1.1008490596
 C          3.5935790258       -1.5704688104        0.2116612427
 N          1.1761996344       -3.0756569234       -0.0786961497
 C         -1.1503261172       -5.8437296460       -0.6809660285
 C         -1.1420952570       -7.2236398561       -0.7381257769
 H          0.0369882834       -9.0015286489       -0.5553133557
 H          2.1200231207       -7.7844814108       -0.0467111245
 H          2.1070496673       -5.3097175438        0.0571956188
 H         -3.6387864625       -2.6247887933       -0.6118190799
 H         -6.2336376347        0.4017964818       -2.8428220876
 H         -8.3633474616        0.6103214133       -4.0603221617
 H        -10.3189155338       -0.7186533944       -3.4221287366
 H        -10.1929696287       -2.3269826851       -1.5481078940
 H         -9.4029544250       -3.8766297436        0.5704068921
 H         -8.1515217347       -4.9702930679        2.4019416352
 H         -5.8290486226       -4.3505133407        2.8702253249
 H         -4.6687083065       -2.6499508038        1.5233879539
 H         -5.4851376299        1.2426669446       -0.6304612030
 H         -5.0821906633        2.3390498133       -2.7432026053
 H         -6.0393244375        4.3027571193       -3.8709714452
 H         -5.3798548239        6.5739983885       -3.2340009327
 H         -3.7100166476        6.9464519691       -1.4479511130
 H         -1.8895575627        6.6745088387        0.5712972582
 H         -0.3160939162        5.8245756801        2.2819161287
 H         -0.0754623235        3.4227487563        2.6687998957
 H         -1.3893619423        1.7879403639        1.3859848308
 H         -1.2204956271        0.8824219655       -0.6961349714
 H          1.2195657352        0.8072115789        0.5813617394
 H          4.9686606310        1.9004305140        3.0190964475
 H          5.8478769265        3.6465886071        4.5101119608
 H          5.1999479253        5.9921359741        4.2358691363
 H          3.6135203840        6.6615467458        2.4600807831
 H          1.8820404775        6.7336847603        0.3486570367
 H          0.3770986713        6.1813154189       -1.5361271746
 H          0.1772410682        3.8797174990       -2.3371714258
 H          1.4621550174        2.0557895654       -1.3052523226
 H          5.4738551125        1.1739440060        0.8554859398
 H          6.4176753403        0.8370742953       -1.2648804555
 H          8.6307602607        1.2784398076       -2.2411716293
 H         10.5348460367       -0.1919262205       -1.7833899175
 H         10.2685648687       -2.1876368239       -0.3469811147
 H          9.3224257751       -4.1783378751        1.2743929636
 H          7.9331244425       -5.6632998994        2.6822757099
 H          5.5781277112       -5.1391786467        3.1032235188
 H          4.5224623384       -3.1445846600        2.1230463079
 H          3.6827349178       -2.6175821724       -0.0265460344
 H         -2.0557751591       -5.2837402320       -0.8557480729
 H         -2.0537953174       -7.7588933972       -0.9590324472
  119
  -189.587141254500       9.887830766977010E-002 !
 C          0.0943406123       -7.7819169443       -0.5507712696
 C          1.2711741264       -7.0777747366       -0.3460215913
 C          1.2516591669       -5.6981459739       -0.2872568952
 C          0.0469844014       -5.0111733453       -0.4345702367
 C          0.0223317164       -3.5524805634       -0.3697333054
 N         -1.1565498099       -2.9377968197       -0.4644350497
 C         -1.1245001058       -1.6129651116       -0.4131888747
 C         -2.3773173794       -0.8634212156       -0.5253736295
 C         -3.6057251063       -1.4960012913       -0.3760045328
 C         -4.7735910549       -0.7442906449       -0.4378083218
 N         -6.0150997102       -1.3636637694       -0.2526870607
 C         -7.1246479379       -1.2161668088       -1.0613702345
 C         -7.2600826094       -0.5310809020       -2.2594672531
 C         -8.4889973740       -0.5646034053       -2.8896751855
 C         -9.5611826957       -1.2729541765       -2.3522108417
 C         -9.4241690676       -1.9835944258       -1.1764457709
 C         -8.1982542029       -1.9626037011       -0.5247453987
 C         -7.7032577413       -2.5868301158        0.6703547852
 C         -8.2821945219       -3.4133257763        1.6243529800
 C         -7.5128792102       -3.8307381432        2.6918143084
 C         -6.1872633449       -3.4227687693        2.8215230265
 C         -5.5895542714       -2.6002164617        1.8856489092
 C         -6.3510045632       -2.1956175248        0.7988979097
 C         -4.7123332702        0.6312437132       -0.6497486997
 C         -3.4811685323        1.2570829688       -0.8255999911
 N         -3.3948624935        2.6373909820       -1.0229087790
 C         -4.1407420245        3.3938041235       -1.9075575095
 C         -5.1294097069        3.0026992456       -2.7979670305
 C         -5.7023310602        3.9711788922       -3.6000092192
 C         -5.2995523259        5.3023861366       -3.5323508084
 C         -4.2956566785        5.6946498822       -2.6695898293
 C         -3.7059293311        4.7380307721       -1.8544838892
 C         -2.6432376749        4.7875088297       -0.8895564541
 C         -1.8390708828        5.8142371197       -0.4115888048
 C         -0.8936112860        5.5197903197        0.5498863761
 C         -0.7631810951        4.2274404332        1.0523812168
 C         -1.5538018090        3.1916041126        0.5930010371
 C         -2.4805270071        3.4717168420       -0.4016384653
 C         -2.3150185084        0.5028471377       -0.7701907303
 N         -0.0171637069       -0.8973076395       -0.2384874439
 C          1.1094128139       -1.5915236917       -0.1306102538
 C          2.3425380928       -0.8414883171        0.1177996567
 C          2.2641854322        0.4834986742        0.5322647439
 C          3.4281663998        1.1879076518        0.8137077811
 N          3.3454188011        2.5031697063        1.2854372263
 C          2.5481606233        2.9251818780        2.3320073797
 C          1.7088438320        2.1906531541        3.1578645813
 C          1.0403397482        2.8643250986        4.1628628090
 C          1.2037812033        4.2349217491        4.3547491078
 C          2.0558406134        4.9666678047        3.5514451194
 C          2.7383370115        4.3115372570        2.5344718064
 C          3.6923593987        4.7407503090        1.5510239915
 C          4.2565598736        5.9711158330        1.2419144769
 C          5.1527564087        6.0437996416        0.1942573429
 C          5.4736483089        4.9126380418       -0.5526242564
 C          4.9226698559        3.6789444289       -0.2644133335
 C          4.0433680460        3.5928936236        0.8043858127
 C          4.6675084836        0.5724249148        0.6618338487
 C          4.7435921563       -0.7459978024        0.2188950519
 N          5.9858512621       -1.3702383743        0.0742356197
 C          7.0926620045       -0.8484576398       -0.5684100452
 C          7.2375832589        0.3484294569       -1.2537470799
 C          8.4605677029        0.6183870777       -1.8371652541
 C          9.5190377968       -0.2829901967       -1.7555253615
 C          9.3727383360       -1.4899534101       -1.1013963407
 C          8.1524096349       -1.7816047073       -0.5068261151
 C          7.6527395880       -2.9206436694        0.2113915840
 C          8.2206896610       -4.1286590515        0.5940484036
 C          7.4513385662       -5.0231562948        1.3105209765
 C          6.1383607993       -4.7167197119        1.6604578300
 C          5.5524939823       -3.5203165536        1.2926922570
 C          6.3115271103       -2.6288999298        0.5478686354
 C          3.5777230207       -1.4543916942       -0.0505523170
 N          1.1804678520       -2.9145984908       -0.2090912033
 C         -1.1335429685       -5.7239048618       -0.6407440003
 C         -1.1059583469       -7.1035467011       -0.6977457818
 H          0.1127725917       -8.8609021282       -0.5963812051
 H          2.2051138403       -7.6082706175       -0.2327466169
 H          2.1579498210       -5.1347186070       -0.1274402141
 H         -3.6400944361       -2.5610842070       -0.2155470270
 H         -6.4271003138       -0.0045550222       -2.6987737460
 H         -8.6189271118       -0.0355665756       -3.8222041671
 H        -10.5068162170       -1.2737120603       -2.8731414466
 H        -10.2488698655       -2.5497693203       -0.7708781549
 H         -9.3140862931       -3.7160397595        1.5308175397
 H         -7.9427012648       -4.4749449927        3.4441223030
 H         -5.6141846008       -3.7538404075        3.6749023986
 H         -4.5666164935       -2.2773377835        2.0056729199
 H         -5.6206239930        1.2136412912       -0.6431343050
 H         -5.4367695743        1.9727151505       -2.8796356860
 H         -6.4771266822        3.6876188930       -4.2967946014
 H         -5.7735438720        6.0309999442       -4.1726712699
 H         -3.9681171627        6.7224120833       -2.6295230289
 H         -1.9570706449        6.8194623973       -0.7869299148
 H         -0.2494866779        6.2980838452        0.9306799942
 H         -0.0333566105        4.0333364775        1.8213271141
 H         -1.4558918243        2.2014809328        1.0104666817
 H         -1.3540408026        0.9633433923       -0.9271980014
 H          1.2990157729        0.9529887617        0.6291493881
 H          1.5857202388        1.1262190720        3.0289441732
 H          0.3769138170        2.3159822006        4.8150753495
 H          0.6592780253        4.7252288796        5.1476113729
 H          2.1938838761        6.0255902743        3.7086823135
 H          3.9938389663        6.8509588914        1.8095083264
 H          5.6059970832        6.9900433879       -0.0602808547
 H          6.1652278105        5.0024369229       -1.3772053509
 H          5.1588712043        2.8147036170       -0.8649609607
 H          5.5685298558        1.1070328906        0.9204433350
 H          6.4183460824        1.0434322178       -1.3471012074
 H          8.5963463445        1.5469801027       -2.3716114171
 H         10.4605208235       -0.0350931091       -2.2221217449
 H         10.1859258663       -2.1982488638       -1.0551600235
 H          9.2440041971       -4.3565552316        0.3370377034
 H          7.8716698929       -5.9701298993        1.6142483835
 H          5.5653607075       -5.4286159857        2.2359446649
 H          4.5407551018       -3.2882031139        1.5880948380
 H          3.6182674705       -2.4702356233       -0.4072870582
 H         -2.0578947748       -5.1791586964       -0.7547658285
 H         -2.0212227505       -7.6541836997       -0.8574856975
  119
  -189.586482636500       4.925169131482730E-002 !
 C          0.1032250558       -7.9415124057       -0.6582326858
 C          1.2734369590       -7.2503278592       -0.3840349223
 C          1.2535025979       -5.8746875221       -0.2631155415
 C          0.0552547560       -5.1785913751       -0.4170372430
 C          0.0316460809       -3.7229701012       -0.2997089694
 N         -1.1387591813       -3.1024463971       -0.4567697900
 C         -1.1030139879       -1.7794159528       -0.3765185962
 C         -2.3301891482       -0.9919765286       -0.5083174285
 C         -3.5867164147       -1.5784024584       -0.4322419956
 C         -4.7186881043       -0.7705460466       -0.4635994365
 N         -5.9891191608       -1.3465692717       -0.3506591651
 C         -7.0738299366       -1.0883973210       -1.1649649212
 C         -7.1578183379       -0.2963341901       -2.3002394556
 C         -8.3721223134       -0.2309792937       -2.9558585454
 C         -9.4802507466       -0.9440995494       -2.5042900021
 C         -9.3953034464       -1.7582350399       -1.3924296176
 C         -8.1847346404       -1.8389064273       -0.7171903153
 C         -7.7393168821       -2.5828008887        0.4278816357
 C         -8.3674646468       -3.4694889898        1.2925534154
 C         -7.6374237198       -4.0071285377        2.3334986962
 C         -6.3026228264       -3.6584504767        2.5266108556
 C         -5.6563475573       -2.7779215115        1.6801570257
 C         -6.3778026902       -2.2537070865        0.6173685043
 C         -4.5940335504        0.6136855208       -0.5622257396
 C         -3.3330068507        1.1951805766       -0.6664554894
 N         -3.1715933990        2.5817860027       -0.7230649517
 C         -3.8782599852        3.4675376395       -1.5138887510
 C         -4.8615392897        3.2224009894       -2.4606936540
 C         -5.3925893737        4.3023051254       -3.1399538013
 C         -4.9523405254        5.6009673414       -2.8974978879
 C         -3.9548178517        5.8498465486       -1.9758443637
 C         -3.4086904079        4.7802799594       -1.2795260742
 C         -2.3716511118        4.6746103463       -0.2915104539
 C         -1.5733339303        5.6107500352        0.3517411353
 C         -0.6644552499        5.1712819765        1.2921887183
 C         -0.5584748394        3.8187958595        1.6034176974
 C         -1.3499449040        2.8703552734        0.9844194932
 C         -2.2489380806        3.3022424285        0.0193628398
 C         -2.2057176356        0.3844491286       -0.6590267942
 N          0.0005043832       -1.0787377701       -0.1444196650
 C          1.1168009983       -1.7757937431        0.0281921363
 C          2.3259240770       -0.9910721095        0.2826527995
 C          2.1969228768        0.3881883636        0.4032839038
 C          3.3218851433        1.1885010300        0.5521381298
 N          3.1694943855        2.5774922616        0.5750039016
 C          3.7720720158        3.4633698864        1.4480081333
 C          4.6067782438        3.2168169881        2.5277441656
 C          5.0478386104        4.2970673480        3.2681600355
 C          4.6629969614        5.5982522291        2.9552119446
 C          3.8105866424        5.8491546329        1.8983956163
 C          3.3564149567        4.7789934742        1.1398261738
 C          2.4594516207        4.6747005636        0.0234889857
 C          1.7543134726        5.6125365893       -0.7183478150
 C          0.9535925320        5.1724343966       -1.7520546545
 C          0.8723553941        3.8181809163       -2.0626956246
 C          1.5789816385        2.8686990287       -1.3496520725
 C          2.3599603892        3.3004689703       -0.2870408642
 C          4.5790794701        0.5939464406        0.6292892584
 C          4.7008484761       -0.7928009367        0.5642833449
 N          5.9653066832       -1.3856469370        0.6534090131
 C          6.9116678617       -1.1339487253        1.6272108212
 C          6.8334815689       -0.3181170955        2.7459025590
 C          7.9271191070       -0.2670226892        3.5884574682
 C          9.0731576378       -1.0175649167        3.3364938809
 C          9.1457503780       -1.8557894921        2.2418018787
 C          8.0584608869       -1.9225188964        1.3807933339
 C          7.7813663149       -2.6859081046        0.1961622681
 C          8.5138257723       -3.6126540814       -0.5338977938
 C          7.9435892755       -4.1637706926       -1.6637932091
 C          6.6667688928       -3.7894025919       -2.0763906210
 C          5.9194169912       -2.8683172160       -1.3674157502
 C          6.4774064094       -2.3295961929       -0.2170456014
 C          3.5757349677       -1.5891069380        0.3792759865
 N          1.1822259154       -3.0987851002       -0.0459895481
 C         -1.1188806100       -5.8785223084       -0.6918610127
 C         -1.0910453696       -7.2541287629       -0.8111341018
 H          0.1220595853       -9.0172879360       -0.7532911949
 H          2.2025308881       -7.7877999910       -0.2661237877
 H          2.1546691832       -5.3208605566       -0.0508234943
 H         -3.6716660939       -2.6493599786       -0.3472687612
 H         -6.2979745958        0.2380094501       -2.6734277056
 H         -8.4625533360        0.3820735269       -3.8403626688
 H        -10.4130785516       -0.8651556283       -3.0420561567
 H        -10.2484434900       -2.3265239253       -1.0542688373
 H         -9.4064164319       -3.7263171242        1.1518362151
 H         -8.1055080753       -4.7008199241        3.0157034972
 H         -5.7608450922       -4.0833253036        3.3585835766
 H         -4.6269603164       -2.5020689024        1.8509007453
 H         -5.4763195555        1.2334723012       -0.5190846598
 H         -5.1968222169        2.2205777304       -2.6765911581
 H         -6.1633769108        4.1340594982       -3.8774661146
 H         -5.3933263717        6.4190609005       -3.4470021413
 H         -3.6004582263        6.8540734464       -1.7993527280
 H         -1.6689278052        6.6605381792        0.1197058315
 H         -0.0299684095        5.8796928120        1.8025573645
 H          0.1548870104        3.5052482410        2.3516145421
 H         -1.2770052797        1.8301674293        1.2622600625
 H         -1.2246090807        0.8141997134       -0.7701282431
 H          1.2138252408        0.8268751279        0.3826387396
 H          4.8950691218        2.2135688210        2.7979260282
 H          5.7015522953        4.1270230952        4.1107992566
 H          5.0296037107        6.4164353060        3.5567887783
 H          3.4966844637        6.8554028689        1.6655620766
 H          1.8340888126        6.6636772875       -0.4866357727
 H          0.3855570027        5.8819668019       -2.3343827341
 H          0.2468761208        3.5026787496       -2.8849291421
 H          1.5292839156        1.8271669134       -1.6274944517
 H          5.4653387621        1.2047601386        0.7060362237
 H          5.9395542388        0.2444901958        2.9654755183
 H          7.8901331440        0.3638136339        4.4642931710
 H          9.9083951254       -0.9493447888        4.0171743203
 H         10.0256354007       -2.4534327053        2.0581084861
 H          9.5092412905       -3.8902020721       -0.2219251105
 H          8.4941463501       -4.8891420008       -2.2438266839
 H          6.2519876484       -4.2267821096       -2.9724128556
 H          4.9381931005       -2.5738967384       -1.7071024506
 H          3.6589766380       -2.6617547033        0.3196575561
 H         -2.0383605207       -5.3267271564       -0.8108838706
 H         -2.0012892542       -7.7947486614       -1.0253742874
  119
  -189.585924769200       2.729248554025082E-002 !
 C          0.0550389269       -7.9641403125       -0.2727504202
 C         -1.1408049651       -7.2776929100       -0.4183614636
 C         -1.1575958537       -5.8974667403       -0.3721227913
 C          0.0292577500       -5.1921617332       -0.1769251516
 C          0.0175529339       -3.7324284921       -0.1302092845
 N         -1.1476294748       -3.1099062780       -0.3139394816
 C         -1.1028619307       -1.7846533604       -0.2829397163
 C         -2.3241777216       -0.9954857659       -0.4539267356
 C         -3.5832496078       -1.5808101979       -0.4217819155
 C         -4.7131878587       -0.7729696693       -0.4976354338
 N         -5.9869245395       -1.3490103560       -0.4337425178
 C         -7.0405437480       -1.0881604131       -1.2875329691
 C         -7.0830136004       -0.2911434329       -2.4217018680
 C         -8.2716018981       -0.2251717815       -3.1229070656
 C         -9.3946714301       -0.9425937038       -2.7174832222
 C         -9.3505419757       -1.7613041508       -1.6066229605
 C         -8.1665160106       -1.8423263900       -0.8858866816
 C         -7.7639953312       -2.5908968731        0.2719549448
 C         -8.4240661408       -3.4819939381        1.1078294657
 C         -7.7337978721       -4.0242959829        2.1732096970
 C         -6.4076051324       -3.6756434868        2.4184636707
 C         -5.7303262502       -2.7903568429        1.6016590569
 C         -6.4110310712       -2.2613546953        0.5145595698
 C         -4.5842058657        0.6111952923       -0.5932841896
 C         -3.3198109029        1.1919526181       -0.6506586296
 N         -3.1557934954        2.5787874849       -0.6979011579
 C         -3.8344336634        3.4688187890       -1.5080979122
 C         -4.7755481089        3.2282730805       -2.4980098876
 C         -5.2821447385        4.3122008087       -3.1895958900
 C         -4.8587915414        5.6105231085       -2.9169301572
 C         -3.9028171911        5.8551870816       -1.9510951001
 C         -3.3817244120        4.7815137769       -1.2420597543
 C         -2.3849596218        4.6711501347       -0.2140740747
 C         -1.6163350490        5.6046704408        0.4678282624
 C         -0.7378082516        5.1598401321        1.4342165593
 C         -0.6353235344        3.8046735931        1.7344742056
 C         -1.4004302951        2.8590174199        1.0791802080
 C         -2.2665577716        3.2962973614        0.0870402010
 C         -2.1938340349        0.3807937920       -0.6028252658
 N          0.0043046430       -1.0844629048       -0.0683683388
 C          1.1171532824       -1.7825820701        0.1227879731
 C          2.3310170870       -0.9947628797        0.3433659665
 C          2.1989467539        0.3831545980        0.4739830848
 C          3.3240047050        1.1896862947        0.5814046736
 N          3.1619165569        2.5773252720        0.6149658932
 C          3.7869380479        3.4651023501        1.4696575251
 C          4.6641757702        3.2214979505        2.5157392252
 C          5.1206930004        4.3022970604        3.2458641465
 C          4.7103285170        5.6008322583        2.9551731312
 C          3.8167245786        5.8484089899        1.9320948757
 C          3.3457862400        4.7776398388        1.1846437128
 C          2.4092330101        4.6692240600        0.1014656524
 C          1.6682086207        5.6027907937       -0.6102658710
 C          0.8360627138        5.1589159228       -1.6172567147
 C          0.7570629399        3.8052663570       -1.9309828332
 C          1.4987582789        2.8601178231       -1.2484391375
 C          2.3133805705        3.2955780059       -0.2129007545
 C          4.5871285313        0.6031628859        0.6038472294
 C          4.7146053376       -0.7826272353        0.5285555732
 N          5.9851346134       -1.3686351346        0.5558507027
 C          6.9784870475       -1.1137923140        1.4811262532
 C          6.9565122130       -0.2952967035        2.6004613427
 C          8.0914603244       -0.2411608793        3.3864659440
 C          9.2241088149       -0.9913341791        3.0791129585
 C          9.2423965415       -1.8313049374        1.9835237442
 C          8.1132633760       -1.9003319988        1.1784394841
 C          7.7799190066       -2.6642883290        0.0088289769
 C          8.4787619319       -3.5879227214       -0.7572390179
 C          7.8562100154       -4.1386070529       -1.8593860537
 C          6.5602276757       -3.7663596290       -2.2093963260
 C          5.8456083246       -2.8484971197       -1.4634365986
 C          6.4565174971       -2.3107505717       -0.3397131715
 C          3.5871043905       -1.5854670502        0.3897472559
 N          1.1743817218       -3.1072985293        0.0923638790
 C          1.2290550049       -5.8873959969       -0.0299119881
 C          1.2380962546       -7.2674687563       -0.0790585597
 H          0.0651171749       -9.0435608033       -0.3106166475
 H         -2.0610602323       -7.8227889165       -0.5683128088
 H         -2.0784965200       -5.3468633075       -0.4851363077
 H         -3.6714550921       -2.6515808915       -0.3385999907
 H         -6.2109269490        0.2466870434       -2.7597412061
 H         -8.3295841195        0.3920859422       -4.0072582560
 H        -10.3065072023       -0.8629212614       -3.2901043114
 H        -10.2147170802       -2.3327519222       -1.3036629187
 H         -9.4566552447       -3.7387803354        0.9261098687
 H         -8.2269451611       -4.7215714938        2.8337986228
 H         -5.8975489790       -4.1039355651        3.2685738486
 H         -4.7086216770       -2.5145586706        1.8135821894
 H         -5.4669936423        1.2317530206       -0.5844471803
 H         -5.0962448050        2.2269109136       -2.7375017315
 H         -6.0191199337        4.1474653508       -3.9616882607
 H         -5.2791525277        6.4317177104       -3.4779250121
 H         -3.5608608107        6.8592615386       -1.7505120978
 H         -1.7097452063        6.6563838073        0.2437865273
 H         -0.1238498624        5.8659383557        1.9723459116
 H          0.0544211984        3.4861845839        2.5024771129
 H         -1.3315176812        1.8164811018        1.3490096199
 H         -1.2093056111        0.8098956128       -0.6807920882
 H          1.2134286628        0.8165127918        0.4924477613
 H          4.9723330258        2.2196886208        2.7687887531
 H          5.8068255553        4.1348429014        4.0628511900
 H          5.0896718944        6.4195682466        3.5480877639
 H          3.4829751135        6.8523456582        1.7177519469
 H          1.7444059615        6.6535698623       -0.3756876960
 H          0.2405693088        5.8648700833       -2.1760891254
 H          0.1049274867        3.4871831109       -2.7312668651
 H          1.4492698156        1.8191118595       -1.5283776042
 H          5.4717430130        1.2198218661        0.6444538770
 H          6.0749453516        0.2679315629        2.8638934341
 H          8.0983680621        0.3924662126        4.2610789580
 H         10.0926647585       -0.9206948727        3.7165305047
 H         10.1124911083       -2.4284179721        1.7564409619
 H          9.4887343472       -3.8633751568       -0.4939270053
 H          8.3800157410       -4.8613534203       -2.4667950136
 H          6.1040735656       -4.2024268424       -3.0857610246
 H          4.8489183873       -2.5554381011       -1.7560049418
 H          3.6744618352       -2.6573720956        0.3227938310
 H          2.1399316188       -5.3289718414        0.1200135742
 H          2.1686549629       -7.8041739222        0.0326944763
