  119
       -190.33056262
 C          0.0944140279       -7.9640194092       -0.2653937347
 C         -1.1167120352       -7.2894075729       -0.2424207938
 C         -1.1403993042       -5.9092743591       -0.1964267324
 C          0.0551197227       -5.1921433216       -0.1712061113
 C          0.0357533297       -3.7324571953       -0.1255786465
 N         -1.1497500229       -3.1215870958       -0.1445591780
 C         -1.1140964332       -1.7958833399       -0.1222256317
 C         -2.3550184385       -1.0188728689       -0.1209533143
 C         -3.5912414638       -1.6160519178        0.0888795004
 C         -4.7285029680       -0.8192221534        0.1714574905
 N         -5.9748706791       -1.4071646447        0.4147710023
 C         -7.1406040903       -1.1588457354       -0.2827371319
 C         -7.3499881297       -0.3655866397       -1.4008950714
 C         -8.6259682419       -0.3129744288       -1.9280476471
 C         -9.6737525830       -1.0398597976       -1.3675714959
 C         -9.4657902974       -1.8548636133       -0.2726901352
 C         -8.1914322552       -1.9225119922        0.2744644592
 C         -7.6227403133       -2.6638326503        1.3653407374
 C         -8.1499063841       -3.5587221456        2.2871337688
 C         -7.3113715143       -4.0913174411        3.2456734660
 C         -5.9673595935       -3.7293494410        3.3014083858
 C         -5.4204182986       -2.8400506505        2.3960842536
 C         -6.2524089958       -2.3207270871        1.4147167706
 C         -4.6278663232        0.5658217533        0.0564647856
 C         -3.3898766660        1.1584108315       -0.1790884200
 N         -3.2477731390        2.5465992611       -0.2510883211
 C         -4.0423262405        3.4277629416       -0.9591581748
 C         -5.1108935489        3.1753834950       -1.8064791759
 C         -5.7203464094        4.2524172647       -2.4216182930
 C         -5.2756367585        5.5554994428       -2.2132304599
 C         -4.1957844993        5.8120679518       -1.3918435388
 C         -3.5696270697        4.7454769920       -0.7614835075
 C         -2.4371614643        4.6476051295        0.1162507856
 C         -1.5894898839        5.5903838613        0.6818087823
 C         -0.5794565304        5.1567570909        1.5157093318
 C         -0.4224480155        3.8035100436        1.8006740226
 C         -1.2627755584        2.8487072685        1.2609838727
 C         -2.2640808088        3.2748267456        0.3998553498
 C         -2.2604449850        0.3581433656       -0.2888456078
 N          0.0053063267       -1.0845680465       -0.0666074100
 C          1.1407860336       -1.7715075029       -0.0327959159
 C          2.3658038050       -0.9715352510        0.0136252008
 C          2.2398776996        0.4054393135        0.1593771981
 C          3.3608788385        1.2229476569        0.1062290671
 N          3.1914896794        2.6090740522        0.1600972725
 C          3.9217422813        3.5052506715        0.9169964696
 C          4.9397291947        3.2730604720        1.8296664009
 C          5.4837446724        4.3602825619        2.4866385354
 C          5.0238333445        5.6540001718        2.2545388759
 C          3.9928397185        5.8900740383        1.3669395145
 C          3.4320118916        4.8126935899        0.6948262409
 C          2.3535449823        4.6922083678       -0.2456805805
 C          1.5106504620        5.6165996081       -0.8475571589
 C          0.5495601119        5.1618877748       -1.7267981716
 C          0.4405340170        3.8066369099       -2.0241878027
 C          1.2801017917        2.8705855296       -1.4512852032
 C          2.2279410420        3.3167998145       -0.5413025885
 C          4.6203088630        0.6485349621       -0.0483065197
 C          4.7495454117       -0.7361938756       -0.1386247911
 N          6.0169843007       -1.3100064576       -0.2893984825
 C          7.1280371888       -1.0430225556        0.4865588886
 C          7.2556544159       -0.2215054710        1.5965825476
 C          8.4892752570       -0.1542786219        2.2150494485
 C          9.5747607591       -0.8945380816        1.7526042112
 C          9.4470438441       -1.7374949329        0.6666423433
 C          8.2166429735       -1.8196127211        0.0284907366
 C          7.7296486418       -2.5901202952       -1.0814151517
 C          8.3228546665       -3.5092995568       -1.9367269048
 C          7.5569325900       -4.0690997724       -2.9394927307
 C          6.2210108727       -3.7102222912       -3.1043128722
 C          5.6094147900       -2.7970234706       -2.2666814118
 C          6.3669719744       -2.2502081021       -1.2408959700
 C          3.6216753066       -1.5501254822       -0.1162134329
 N          1.2061854478       -3.0957028578       -0.0689067977
 C          1.2704432227       -5.8754998782       -0.1933332754
 C          1.2860477898       -7.2555619094       -0.2411165210
 H          0.1096764042       -9.0434012302       -0.3026222508
 H         -2.0435068706       -7.8436691717       -0.2605930858
 H         -2.0734084545       -5.3677889729       -0.1796417903
 H         -3.6563426165       -2.6873656011        0.1853064163
 H         -6.5394381029        0.1795254975       -1.8590748994
 H         -8.8138096169        0.3011167895       -2.7964102769
 H        -10.6577953998       -0.9705389663       -1.8063669407
 H        -10.2731107380       -2.4336186312        0.1496986537
 H         -9.1952148027       -3.8258498798        2.2528612322
 H         -7.6998376724       -4.7913192784        3.9701433324
 H         -5.3386322132       -4.1502838593        4.0719892026
 H         -4.3818248973       -2.5539273628        2.4617614338
 H         -5.5066943643        1.1779766243        0.1884190715
 H         -5.4522254987        2.1703202594       -1.9969241705
 H         -6.5569253327        4.0784228275       -3.0821169526
 H         -5.7787669999        6.3710150844       -2.7107979014
 H         -3.8389038068        6.8199318824       -1.2429150633
 H         -1.7238130493        6.6405018163        0.4714977516
 H          0.0971094530        5.8702335139        1.9610324379
 H          0.3715468585        3.4938426892        2.4645187188
 H         -1.1463561164        1.8076666687        1.5200587990
 H         -1.3009320754        0.7963619035       -0.5051853975
 H          1.2625394017        0.8294547826        0.3156043079
 H          5.2902436997        2.2749717397        2.0384135090
 H          6.2795677507        4.2017513631        3.1992535048
 H          5.4747250641        6.4780369912        2.7869276020
 H          3.6224112027        6.8901596584        1.2001105669
 H          1.6087481731        6.6687370189       -0.6276632894
 H         -0.1255165794        5.8605089678       -2.1974118400
 H         -0.3145099023        3.4800269729       -2.7242926245
 H          1.2019708885        1.8283422640       -1.7198603448
 H          5.4957377269        1.2736974005       -0.1334899029
 H          6.4144036525        0.3340783992        1.9805179513
 H          8.6128872060        0.4819387028        3.0790092476
 H         10.5235911799       -0.8137769723        2.2614056880
 H         10.2823819525       -2.3269648051        0.3203611919
 H          9.3624786596       -3.7743610124       -1.8176642423
 H          7.9971879989       -4.7886024322       -3.6134151979
 H          5.6504510638       -4.1531683161       -3.9071245532
 H          4.5786530847       -2.5143154439       -2.4166051704
 H          3.7092805103       -2.6213420757       -0.1931214856
 H          2.1878184380       -5.3080000848       -0.1738880656
 H          2.2283046440       -7.7830615236       -0.2605294975
  119
       -190.33048542
 C          0.0704710067       -7.9284644934       -0.3983626219
 C          1.2609670343       -7.2263864036       -0.2869982170
 C          1.2500256985       -5.8458997837       -0.2483525704
 C          0.0403856604       -5.1559072891       -0.3213071020
 C          0.0252725350       -3.6960406778       -0.2794704939
 N         -1.1572996500       -3.0808604582       -0.3150072097
 C         -1.1192019594       -1.7554422251       -0.2784579222
 C         -2.3628224382       -0.9834990106       -0.2626515276
 C         -3.5966753154       -1.6004731213       -0.1015549335
 C         -4.7421819937       -0.8193159025        0.0109155678
 N         -5.9835570774       -1.4306903631        0.2177744257
 C         -7.1544728817       -1.1499135743       -0.4586968723
 C         -7.3760522723       -0.2924143302       -1.5259066262
 C         -8.6558084029       -0.2154214557       -2.0405553714
 C         -9.6955361936       -0.9815634768       -1.5189775333
 C         -9.4754527160       -1.8601345474       -0.4769861536
 C         -8.1973631791       -1.9523793512        0.0574240581
 C         -7.6187180082       -2.7522551497        1.1005283611
 C         -8.1361741487       -3.7023239247        1.9711553393
 C         -7.2907232086       -4.2820650906        2.8955330317
 C         -5.9495841272       -3.9128091796        2.9685489024
 C         -5.4122923349       -2.9694436302        2.1136673703
 C         -6.2508861416       -2.4022298389        1.1649910342
 C         -4.6515135657        0.5702467859       -0.0334747462
 C         -3.4159996997        1.1838403442       -0.2249973048
 N         -3.2925646475        2.5758054484       -0.2303940134
 C         -4.0930296770        3.4736267883       -0.9099852822
 C         -5.1354061781        3.2390493278       -1.7941476724
 C         -5.7586282381        4.3309872453       -2.3674364421
 C         -5.3520595177        5.6319330876       -2.0818393865
 C         -4.2968554584        5.8721109350       -1.2242583285
 C         -3.6569849542        4.7900060069       -0.6352622940
 C         -2.5399884644        4.6728993204        0.2599607361
 C         -1.7270955120        5.6041097737        0.8918650255
 C         -0.7244178154        5.1507909551        1.7242781969
 C         -0.5393169769        3.7885524601        1.9414409913
 C         -1.3446868503        2.8440183358        1.3344537120
 C         -2.3394637778        3.2914409434        0.4767213982
 C         -2.2767902706        0.4011505156       -0.3570344423
 N          0.0012414721       -1.0463457142       -0.2073068119
 C          1.1330636893       -1.7383331942       -0.1608509654
 C          2.3619639188       -0.9493802035       -0.0665029199
 C          2.2497524698        0.4106478189        0.2004234015
 C          3.3822158314        1.2131747303        0.2257813616
 N          3.2423685426        2.5892531286        0.4217968425
 C          4.0005425537        3.3851250774        1.2594292934
 C          5.0026574056        3.0316728662        2.1515970100
 C          5.5824812155        4.0358398726        2.9038809216
 C          5.1748497270        5.3621997827        2.7848855523
 C          4.1589031259        5.7161537988        1.9194539256
 C          3.5609567396        4.7246857886        1.1535357254
 C          2.4853438061        4.7296864080        0.2017329562
 C          1.6845542996        5.7351474091       -0.3225467594
 C          0.7175332854        5.3967555045       -1.2467989867
 C          0.5586960298        4.0780407302       -1.6625297912
 C          1.3546757933        3.0631684702       -1.1670030554
 C          2.3106004966        3.3918134406       -0.2165187048
 C          4.6364640584        0.6370824397        0.0389993774
 C          4.7495586438       -0.7317195430       -0.1941421992
 N          6.0108574806       -1.3090818348       -0.3685597135
 C          7.0250473743       -0.8302518307       -1.1764670986
 C          7.0348210083        0.2582043043       -2.0369130865
 C          8.1870010358        0.4991055261       -2.7609881219
 C          9.3052074020       -0.3231055726       -2.6452740674
 C          9.2915677410       -1.4245937146       -1.8133212698
 C          8.1445540625       -1.6876091891       -1.0765881435
 C          7.7799089509       -2.7326427774       -0.1612275294
 C          8.4528412714       -3.8401842737        0.3375825209
 C          7.8015921485       -4.6592689572        1.2379475207
 C          6.5030375065       -4.3746968309        1.6540390942
 C          5.8142909827       -3.2771257845        1.1736273201
 C          6.4538599732       -2.4653032008        0.2477155749
 C          3.6092576489       -1.5254198197       -0.2670890826
 N          1.1956703084       -3.0627639662       -0.1978726243
 C         -1.1540030287       -5.8666426955       -0.4323442803
 C         -1.1350022856       -7.2470985764       -0.4706549100
 H          0.0821166876       -9.0081693830       -0.4282526016
 H          2.1987899767       -7.7593067842       -0.2308931851
 H          2.1666775092       -5.2835216123       -0.1610527182
 H         -3.6524165953       -2.6758901699       -0.0638006950
 H         -6.5723984117        0.2848984811       -1.9554354932
 H         -8.8529488351        0.4495726777       -2.8683567382
 H        -10.6829139156       -0.8915697923       -1.9462525945
 H        -10.2765506388       -2.4684674398       -0.0853919621
 H         -9.1794989012       -3.9751730883        1.9245708487
 H         -7.6715097995       -5.0252110049        3.5798931748
 H         -5.3151950724       -4.3713815657        3.7125048333
 H         -4.3759895573       -2.6791036698        2.1938336976
 H         -5.5359710907        1.1692597255        0.1195535848
 H         -5.4447215266        2.2366219288       -2.0438948961
 H         -6.5755655550        4.1710703547       -3.0554358358
 H         -5.8651305936        6.4595585198       -2.5482153793
 H         -3.9690649831        6.8794560938       -1.0166552626
 H         -1.8827553316        6.6605079579        0.7339909274
 H         -0.0759504776        5.8559486122        2.2214490343
 H          0.2486389766        3.4634798961        2.6049725839
 H         -1.2080284339        1.7935377992        1.5400976489
 H         -1.3170982236        0.8571708767       -0.5323460874
 H          1.2772814124        0.8303107488        0.3950301782
 H          5.3128639215        2.0051061726        2.2731463111
 H          6.3664292809        3.7846658073        3.6029523803
 H          5.6548914857        6.1179573673        3.3882944432
 H          3.8286716840        6.7408477313        1.8406458297
 H          1.8204154923        6.7595945956       -0.0108110075
 H          0.0764008239        6.1601519739       -1.6604941989
 H         -0.2012317105        3.8440096447       -2.3935513765
 H          1.2390099666        2.0515720410       -1.5243877856
 H          5.5231127910        1.2503208889        0.0708045738
 H          6.1684057854        0.8908152016       -2.1550849308
 H          8.2185885160        1.3421317401       -3.4352243723
 H         10.1875738790       -0.0987697866       -3.2255044997
 H         10.1501444172       -2.0744217351       -1.7380788258
 H          9.4650540036       -4.0499681128        0.0267983360
 H          8.3046476523       -5.5283578009        1.6346619073
 H          6.0238232218       -5.0248005137        2.3709904518
 H          4.8154459261       -3.0582694689        1.5188391290
 H          3.6787714788       -2.5750770631       -0.5005957674
 H         -2.0824723589       -5.3199584663       -0.4876247532
 H         -2.0611547850       -7.7962496494       -0.5553175189
  119
       -190.33038238
 C          0.0876111624       -7.9422699346       -0.6513198458
 C          1.2779658367       -7.2390467605       -0.5471598445
 C          1.2617353393       -5.8632723030       -0.4272164183
 C          0.0469241718       -5.1791607496       -0.4109426140
 C          0.0257540941       -3.7234562517       -0.2941829080
 N         -1.1611927453       -3.1146575578       -0.2848235720
 C         -1.1275541193       -1.7910911404       -0.2129353859
 C         -2.3687678220       -1.0158451014       -0.1708310371
 C         -3.5959307189       -1.6139963598        0.0837861475
 C         -4.7288673629       -0.8170970881        0.2117755555
 N         -5.9646685059       -1.4048586764        0.5048372900
 C         -7.1563960504       -1.1597197158       -0.1478773778
 C         -7.4083734261       -0.3722045207       -1.2612477308
 C         -8.7039633562       -0.3205928703       -1.7381384612
 C         -9.7297316612       -1.0427888451       -1.1326340175
 C         -9.4799063774       -1.8524425325       -0.0425356782
 C         -8.1850795565       -1.9193415399        0.4543353802
 C         -7.5744315549       -2.6552058391        1.5260529146
 C         -8.0647924017       -3.5450273377        2.4727348200
 C         -7.1892228695       -4.0722680941        3.4006239811
 C         -5.8440513454       -3.7102262899        3.4018173889
 C         -5.3331026235       -2.8263309841        2.4706098073
 C         -6.2031378163       -2.3125039378        1.5199057297
 C         -4.6331946451        0.5679328679        0.0938701283
 C         -3.4055214588        1.1611045979       -0.1892456155
 N         -3.2675285594        2.5489965784       -0.2707769073
 C         -4.0879461651        3.4253713098       -0.9550416150
 C         -5.1930685845        3.1677638400       -1.7523574381
 C         -5.8257588296        4.2403229420       -2.3514580215
 C         -5.3684813847        5.5439159567       -2.1763293262
 C         -4.2528638958        5.8053197710       -1.4059377198
 C         -3.6029330449        4.7432973952       -0.7921092452
 C         -2.4352730307        4.6507645434        0.0390340623
 C         -1.5631334334        5.5965821940        0.5608021536
 C         -0.5257668554        5.1688883483        1.3636613217
 C         -0.3633138739        3.8184993416        1.6592498552
 C         -1.2251146700        2.8605259874        1.1605418988
 C         -2.2561105699        3.2806534336        0.3319346494
 C         -2.2805843869        0.3612076080       -0.3402523388
 N         -0.0092796241       -1.0791493314       -0.1410073751
 C          1.1270723445       -1.7649425355       -0.1271552630
 C          2.3522164667       -0.9678797422       -0.0482269787
 C          2.2279498931        0.4104718195        0.0868930300
 C          3.3546578893        1.2219761979        0.0731897219
 N          3.1932793459        2.6095155031        0.1148318916
 C          3.9047452339        3.5039536198        0.8918853651
 C          4.8865305008        3.2689111422        1.8427825424
 C          5.4173898591        4.3557363945        2.5111312239
 C          4.9791725084        5.6521572302        2.2534875409
 C          3.9830698683        5.8914546699        1.3277811156
 C          3.4365580274        4.8145336049        0.6433030282
 C          2.3914378283        4.6980339578       -0.3343372719
 C          1.5789630010        5.6266649059       -0.9704247463
 C          0.6441560656        5.1755621679       -1.8792900323
 C          0.5331272285        3.8195877925       -2.1727280401
 C          1.3431075929        2.8792318180       -1.5653319076
 C          2.2625541886        3.3219084702       -0.6250388624
 C          4.6159234505        0.6397135797       -0.0276292217
 C          4.7409933483       -0.7460120471       -0.1066466631
 N          6.0111301030       -1.3264576903       -0.1966455624
 C          7.0834724457       -1.0625535582        0.6326179305
 C          7.1566214216       -0.2438592886        1.7495577091
 C          8.3581232086       -0.1795701768        2.4283896796
 C          9.4642395958       -0.9199484915        2.0178411591
 C          9.3891792210       -1.7610096715        0.9254937986
 C          8.1914993262       -1.8409325701        0.2275237671
 C          7.7568067110       -2.6107962680       -0.9043982550
 C          8.3874961746       -3.5328806226       -1.7292218117
 C          7.6682945220       -4.0931042578       -2.7657840589
 C          6.3422190303       -3.7322992038       -2.9938232929
 C          5.6938545598       -2.8160862445       -2.1877489610
 C          6.4039598313       -2.2683077370       -1.1291587566
 C          3.6089692844       -1.5536294038       -0.1287170284
 N          1.1944367546       -3.0874835886       -0.2073841367
 C         -1.1473161356       -5.8911693884       -0.5151494274
 C         -1.1230318777       -7.2668291156       -0.6345838364
 H          0.1034457173       -9.0181209687       -0.7460704150
 H          2.2196764621       -7.7672311158       -0.5612041344
 H          2.1783608641       -5.3001719225       -0.3459203903
 H         -3.6573452361       -2.6854334946        0.1819575890
 H         -6.6154806575        0.1691079182       -1.7536152335
 H         -8.9249823181        0.2886780399       -2.6020242474
 H        -10.7301266568       -0.9745153025       -1.5328100659
 H        -10.2707938081       -2.4277487675        0.4142714065
 H         -9.1106004249       -3.8122266700        2.4812746285
 H         -7.5489344385       -4.7681691646        4.1436201999
 H         -5.1855846848       -4.1271885662        4.1493362564
 H         -4.2926928794       -2.5401015171        2.4931137672
 H         -5.5065514991        1.1794004621        0.2605452243
 H         -5.5456243673        2.1620840670       -1.9166402122
 H         -6.6916316953        4.0623155699       -2.9718788356
 H         -5.8910252571        6.3559616884       -2.6592683945
 H         -3.8870368428        6.8134566880       -1.2833725221
 H         -1.7010729318        6.6446463413        0.3427013595
 H          0.1676217708        5.8849899966        1.7775529257
 H          0.4520105620        3.5142243071        2.2992955753
 H         -1.1031992817        1.8219947331        1.4271798438
 H         -1.3294560764        0.7999461370       -0.5901853974
 H          1.2475564264        0.8396773989        0.2050644437
 H          5.2201578575        2.2693499193        2.0712270708
 H          6.1856406043        4.1946958346        3.2528550386
 H          5.4192460373        6.4757641697        2.7954521533
 H          3.6293576299        6.8938930414        1.1399340737
 H          1.6803591776        6.6792703768       -0.7543417049
 H         -0.0077249987        5.8777314541       -2.3764981986
 H         -0.1994659886        3.4954429945       -2.8973460249
 H          1.2648468770        1.8363712119       -1.8313627615
 H          5.4980071142        1.2592129967       -0.0785004847
 H          6.2973271840        0.3108963493        2.0926392090
 H          8.4394514563        0.4537391773        3.2994324940
 H         10.3868411880       -0.8415313212        2.5730515306
 H         10.2400091032       -2.3508164894        0.6199864254
 H          9.4197951503       -3.7998871505       -1.5610604753
 H          8.1382055055       -4.8150722558       -3.4166767816
 H          5.8089297243       -4.1765431887       -3.8211382065
 H          4.6715058091       -2.5321629694       -2.3853885358
 H          3.6935514200       -2.6256218891       -0.1975264405
 H         -2.0798100896       -5.3485745292       -0.5035960276
 H         -2.0490497793       -7.8168161749       -0.7165456667
  119
       -190.33034908
 C         -0.0085809853       -7.9308803955       -0.4664416593
 C         -1.1627010128       -7.2546281921       -0.1012344582
 C         -1.1628442831       -5.8757257872       -0.0244145617
 C         -0.0003933951       -5.1616994348       -0.3123509636
 C          0.0029918920       -3.7030455474       -0.2383624033
 N         -1.1473499743       -3.0882393066        0.0380210432
 C         -1.1005342098       -1.7626267587        0.0668949850
 C         -2.3138570160       -0.9901459687        0.3378225202
 C         -3.5608223502       -1.5972791192        0.4073060256
 C         -4.6898923687       -0.8171194376        0.6356679903
 N         -5.9457468001       -1.4235039482        0.7382141978
 C         -7.1025545002       -1.0248058987        0.0956905970
 C         -7.2994401236       -0.0069811780       -0.8265346391
 C         -8.5707543383        0.1607818498       -1.3418894231
 C         -9.6255280401       -0.6659604441       -0.9623705200
 C         -9.4298835465       -1.6981723307       -0.0667464388
 C         -8.1610803391       -1.8862071329        0.4647600135
 C         -7.6080368889       -2.8468304262        1.3782298713
 C         -8.1489323894       -3.9149481633        2.0818203750
 C         -7.3238564257       -4.6432603293        2.9152942478
 C         -5.9799064335       -4.3078174688        3.0631696322
 C         -5.4193801170       -3.2491142221        2.3741466322
 C         -6.2378907103       -2.5291498213        1.5156143653
 C         -4.5748614420        0.5663763905        0.7501567978
 C         -3.3237455517        1.1727444350        0.6671330006
 N         -3.1894440096        2.5613259463        0.7412307892
 C         -2.4112886555        3.3310779625       -0.1082099717
 C         -1.6305516881        2.9506453976       -1.1903441695
 C         -0.9647377515        3.9400677199       -1.8881335857
 C         -1.0857379618        5.2825995435       -1.5415335188
 C         -1.8834093588        5.6707947458       -0.4846465590
 C         -2.5481617240        4.6926328235        0.2422293505
 C         -3.4346850755        4.7384771060        1.3712707701
 C         -3.9133285264        5.7725005967        2.1643433102
 C         -4.7460400592        5.4650796186        3.2219345944
 C         -5.0868973440        4.1441804008        3.5023440498
 C         -4.6225723472        3.0980926503        2.7272784127
 C         -3.8081114721        3.4028699831        1.6461465113
 C         -2.1930882047        0.3869473664        0.4913052422
 N          0.0008656233       -1.0542388633       -0.1514757732
 C          1.1077116645       -1.7466558476       -0.3922029456
 C          2.3252853203       -0.9538206985       -0.5687655392
 C          2.1917285306        0.4193344353       -0.7430838342
 C          3.3174933096        1.2291526778       -0.8004454754
 N          3.1590213119        2.6143287985       -0.8884746065
 C          2.2835056044        3.3602876407       -0.1161372745
 C          1.4197088300        2.9548955654        0.8913783048
 C          0.6744334054        3.9246215496        1.5341056283
 C          0.7930324183        5.2714268712        1.2033056687
 C          1.6661420779        5.6838987377        0.2175956688
 C          2.4171426569        4.7261755919       -0.4504247790
 C          3.4090821406        4.7993618596       -1.4868933042
 C          3.9410565939        5.8485789747       -2.2240531516
 C          4.8875137298        5.5669616580       -3.1891498070
 C          5.2911720224        4.2566954110       -3.4338771561
 C          4.7757328081        3.1957134374       -2.7134097155
 C          3.8439525886        3.4751142164       -1.7242068157
 C          4.5831491034        0.6515224383       -0.7373390388
 C          4.7151042245       -0.7277722293       -0.5944676272
 N          5.9879512842       -1.3015597537       -0.5186833872
 C          7.0279854853       -0.8704624820        0.2834073800
 C          7.0668000778        0.1662665876        1.2047981351
 C          8.2418202320        0.3651463659        1.9045709532
 C          9.3543225050       -0.4490680486        1.7061329075
 C          9.3127596599       -1.4999104506        0.8117465951
 C          8.1426477022       -1.7197719063        0.0973254917
 C          7.7473840297       -2.7092284874       -0.8659332078
 C          8.4018364594       -3.7847993110       -1.4515744925
 C          7.7201663433       -4.5485176063       -2.3777051747
 C          6.4087068724       -4.2410602610       -2.7328433587
 C          5.7372545745       -3.1751668893       -2.1647998588
 C          6.4088561508       -2.4194573978       -1.2145870303
 C          3.5847835454       -1.5333563128       -0.4963100792
 N          1.1577215367       -3.0705505732       -0.4505940826
 C          1.1582890202       -5.8466184990       -0.6770909109
 C          1.1499497393       -7.2254448002       -0.7536134443
 H         -0.0119311706       -9.0093106807       -0.5271962799
 H         -2.0638023500       -7.8064213581        0.1224022282
 H         -2.0517718566       -5.3331845055        0.2578803574
 H         -3.6432282656       -2.6617731784        0.2613809546
 H         -6.4871826215        0.6270242627       -1.1478062247
 H         -8.7488650750        0.9493134844       -2.0579459269
 H        -10.6048789480       -0.4999792083       -1.3854750367
 H        -10.2420629739       -2.3514171299        0.2139560341
 H         -9.1943477442       -4.1634989327        1.9790493229
 H         -7.7233588701       -5.4790768658        3.4699288565
 H         -5.3621641896       -4.8857556201        3.7344954481
 H         -4.3809970494       -2.9886071947        2.5112722715
 H         -5.4583043654        1.1669597766        0.8994900091
 H         -1.5511354268        1.9180364200       -1.4933842322
 H         -0.3399149741        3.6662642542       -2.7256385261
 H         -0.5509070306        6.0247311633       -2.1143681776
 H         -1.9920456591        6.7127330562       -0.2244824949
 H         -3.6331340044        6.7942208275        1.9573129850
 H         -5.1315928186        6.2543053128        3.8498431600
 H         -5.7246085829        3.9310451667        4.3474932031
 H         -4.8757709969        2.0779555517        2.9724780657
 H         -1.2131552859        0.8331902592        0.4777545788
 H          1.2067848260        0.8451571051       -0.8347898967
 H          1.3395838918        1.9186219657        1.1817612895
 H         -0.0116243156        3.6327597933        2.3157963613
 H          0.1961896797        5.9976202876        1.7337228441
 H          1.7703201176        6.7293296889       -0.0300288075
 H          3.6145348528        6.8619105665       -2.0458615615
 H          5.3161447775        6.3685995637       -3.7717620201
 H          6.0201710443        4.0641254699       -4.2070937776
 H          5.0810153716        2.1833205065       -2.9298657734
 H          5.4639121873        1.2719521355       -0.7896108307
 H          6.2057137434        0.7909519890        1.3869021559
 H          8.2961022923        1.1677905979        2.6251412888
 H         10.2550685706       -0.2585342834        2.2701315613
 H         10.1676370102       -2.1438514998        0.6714944538
 H          9.4232641204       -4.0126165276       -1.1870553046
 H          8.2089791331       -5.3917113893       -2.8422372230
 H          5.9059430616       -4.8474090318       -3.4716323847
 H          4.7269850993       -2.9368053285       -2.4605995154
 H          3.6739908054       -2.5948390160       -0.3321727681
 H          2.0500266121       -5.2811289334       -0.8991834925
 H          2.0474989775       -7.7545399810       -1.0383724618
  119
       -190.32694159
 C          0.1362755322       -7.7886022288       -0.4354133341
 C          1.3192534477       -7.0660866786       -0.4006235326
 C          1.2871519686       -5.6859942197       -0.3615857808
 C          0.0634730812       -5.0170629987       -0.3577249725
 C          0.0259089456       -3.5578831978       -0.3132338637
 N         -1.1641248422       -2.9599681723       -0.2595367084
 C         -1.1453101019       -1.6341384922       -0.2339618436
 C         -2.4129533877       -0.9026414594       -0.1898576128
 C         -3.6009541234       -1.5480165682        0.1320110618
 C         -4.7777357899       -0.8123867175        0.2146736911
 N         -5.9741556626       -1.4440932190        0.5735094112
 C         -7.1835830177       -1.3249753159       -0.0821715297
 C         -7.4875573368       -0.6629125409       -1.2621690769
 C         -8.7888079131       -0.7231356660       -1.7222097358
 C         -9.7691858355       -1.4354331825       -1.0354044671
 C         -9.4662391687       -2.1234183434        0.1226566434
 C         -8.1649125164       -2.0753827960        0.6045931240
 C         -7.5059260611       -2.6720928568        1.7326970724
 C         -7.9402750394       -3.4889004403        2.7683329954
 C         -7.0295259471       -3.8776185110        3.7300955299
 C         -5.7046801040       -3.4506430644        3.6753575731
 C         -5.2492558817       -2.6372199584        2.6552397235
 C         -6.1545882683       -2.2615529524        1.6735156523
 C         -4.7657787025        0.5598594832       -0.0252500534
 C         -3.5784715775        1.1980629849       -0.3736221873
 N         -3.5398150168        2.5756576240       -0.6024635780
 C         -4.4080552238        3.3068198553       -1.3915524363
 C         -5.5005374123        2.8875540353       -2.1358338123
 C         -6.1895438693        3.8343841993       -2.8694863991
 C         -5.8012529187        5.1715796687       -2.8772007461
 C         -4.6973790395        5.5917092952       -2.1623669333
 C         -3.9901555694        4.6571805683       -1.4181981476
 C         -2.8092962416        4.7371541963       -0.6045507694
 C         -1.9640567477        5.7822745853       -0.2544052920
 C         -0.8946997836        5.5168567538        0.5768926984
 C         -0.6792487802        4.2353342342        1.0778539998
 C         -1.5084533413        3.1816078012        0.7444645189
 C         -2.5634470843        3.4323472932       -0.1219697736
 C         -2.4042041707        0.4597739339       -0.4623526085
 N         -0.0353756375       -0.9015221400       -0.2198596121
 C          1.1057660723       -1.5793815826       -0.2522671229
 C          2.3496570530       -0.8094992322       -0.1824466754
 C          2.3074286550        0.5214953574        0.2177796854
 C          3.4878783759        1.2454680544        0.3302780151
 N          3.4490650733        2.5676948402        0.7879896723
 C          2.7920593624        2.9979648198        1.9247549082
 C          2.0812428591        2.2675385535        2.8666904729
 C          1.5425390862        2.9503082691        3.9411097566
 C          1.7096053348        4.3260405451        4.0878006311
 C          2.4360942420        5.0542444309        3.1665581036
 C          2.9867928722        4.3899778721        2.0781128616
 C          3.7948520237        4.8138343412        0.9695379813
 C          4.2944437317        6.0456102381        0.5685311787
 C          5.0419687421        6.1111550974       -0.5903246649
 C          5.2773925243        4.9711499980       -1.3553699682
 C          4.7881704281        3.7358456889       -0.9767834829
 C          4.0604025160        3.6575243793        0.2009803591
 C          4.7050055898        0.6431696013        0.0241874891
 C          4.7410959667       -0.6817935361       -0.4040555884
 N          5.9622052646       -1.2926834391       -0.7032477306
 C          6.9656745959       -0.7683289240       -1.4959521198
 C          7.0001694143        0.4180190303       -2.2133197955
 C          8.1304093582        0.6931286144       -2.9588512968
 C          9.2036564360       -0.1931699725       -3.0049004796
 C          9.1637905641       -1.3901598909       -2.3181149570
 C          8.0379911383       -1.6867275368       -1.5615439720
 C          7.6554616691       -2.8191601916       -0.7651872280
 C          8.2872711033       -4.0129337194       -0.4426716569
 C          7.6336109252       -4.9043336944        0.3840651992
 C          6.3744977216       -4.6084470214        0.9011288456
 C          5.7270893027       -3.4262474260        0.5959429730
 C          6.3667953238       -2.5385585386       -0.2574630028
 C          3.5604319043       -1.4095624597       -0.5043521356
 N          1.1854735264       -2.9026276737       -0.3186109688
 C         -1.1232268359       -5.7482378116       -0.3932975185
 C         -1.0828935209       -7.1282098817       -0.4316645472
 H          0.1645691101       -8.8679037013       -0.4660211133
 H          2.2677711355       -7.5826126584       -0.4045728312
 H          2.1981432750       -5.1083846521       -0.3330105107
 H         -3.5977533737       -2.6104521608        0.3124268210
 H         -6.7284414623       -0.1336986395       -1.8169257237
 H         -9.0496354435       -0.2123286496       -2.6373147554
 H        -10.7756473541       -1.4573779602       -1.4254630067
 H        -10.2210492061       -2.6927622677        0.6435019292
 H         -8.9707993735       -3.8062815497        2.8180732202
 H         -7.3456820044       -4.5138483980        4.5430983962
 H         -5.0181933991       -3.7593077894        4.4497903467
 H         -4.2243785060       -2.2993250241        2.6326238075
 H         -5.6736888171        1.1307159803        0.0932607468
 H         -5.8006305628        1.8524735645       -2.1594899676
 H         -7.0459046228        3.5287674961       -3.4521261577
 H         -6.3671075315        5.8827094187       -3.4600037967
 H         -4.3827947313        6.6240901709       -2.1825922993
 H         -2.1459730888        6.7791419297       -0.6264868607
 H         -0.2172916082        6.3098562781        0.8560181551
 H          0.1492831733        4.0641028697        1.7455459488
 H         -1.3410617031        2.2003275774        1.1607300622
 H         -1.4796710194        0.9295791346       -0.7533985847
 H          1.3568577087        0.9803426638        0.4351136985
 H          1.9579466678        1.1995191028        2.7721795840
 H          0.9801265493        2.4051903443        4.6845703704
 H          1.2682726619        4.8233178204        4.9383628851
 H          2.5780284517        6.1174425272        3.2872260869
 H          4.0965428574        6.9319299614        1.1521247465
 H          5.4431077472        7.0584320214       -0.9179646474
 H          5.8515949199        5.0551473970       -2.2661476981
 H          4.9551699625        2.8642066122       -1.5897412188
 H          5.6243603683        1.1936432086        0.1518184658
 H          6.1655176965        1.1008194155       -2.2075296234
 H          8.1799401576        1.6137927666       -3.5212370768
 H         10.0708185618        0.0583755058       -3.5967705335
 H          9.9863713767       -2.0871580765       -2.3695789473
 H          9.2705351288       -4.2323325432       -0.8302536754
 H          8.1047272044       -5.8403923280        0.6439333494
 H          5.8939194832       -5.3172868076        1.5590811397
 H          4.7603458500       -3.2018079945        1.0199582255
 H          3.5682671664       -2.4309477370       -0.8472123700
 H         -2.0625551779       -5.2173564855       -0.3915923957
 H         -2.0029582970       -7.6931445652       -0.4591688107
