110
 energy: -152.636299932990 gnorm: 0.000040771349 xtb: 6.7.1 (edcfbbe)
C           -4.63804884746892        5.55967881968125        2.91275464577221
C           -3.22465122877358        5.03695583146133        3.18393720007605
C           -3.09119954864275        4.78487363997549        4.69247713464999
C           -2.22609450510371        6.11781957927711        2.74635375339952
C           -2.92507461481696        3.74702711369255        2.43444619918430
C           -1.66282416055447        3.15727001321285        2.58054622085562
C           -1.29961403986415        1.99077624314788        1.93795435292113
C           -2.23032947514486        1.38884274150143        1.10629517854192
C           -3.51747524802436        1.94578042995826        0.96459345932894
C           -3.85618666496799        3.12065223238600        1.62257111321172
C           -4.25401240830431        1.06369551393192        0.10074056404241
C           -5.54655842898070        1.10007670486869       -0.40555249756511
C           -5.98277051531592        0.09346958798582       -1.25135883288532
C           -7.38643475512655        0.06316063676416       -1.83770958316193
C           -7.29330225572289        0.12058898881525       -3.36902329202350
C           -8.24510339659206        1.24105716564077       -1.36896606363892
C           -8.08325345688111       -1.23524088694170       -1.40714917321215
C           -5.08786796560145       -0.93028725033274       -1.58817743765349
C           -3.79770125841223       -0.98830564293863       -1.10171422194288
C           -3.38224414146625        0.00735902771839       -0.23219610089829
N           -2.15468693057323        0.21387348063212        0.37604192970302
C           -1.05141919218929       -0.63432363623795        0.29844246827760
C           -1.21541693410885       -2.00743764298242        0.46155320910008
C           -0.10890210762838       -2.84874674875924        0.39745088090655
C           -0.24457659388463       -4.31453242848268        0.57316810849973
O            0.64378193456366       -5.01163758219873        1.01332412245386
C           -1.55130255700642       -4.88781959596151        0.15804415133795
C           -2.19319345882327       -5.87048464489552        0.91413286566852
N           -3.34999311950426       -6.39234837927742        0.55186920546861
C           -3.88809433578115       -5.93750085310833       -0.56540882574775
N           -3.36083676071830       -5.03763327532540       -1.37641969005385
C           -2.19422294190855       -4.52817528677722       -1.02746412771722
C            1.16152124926603       -2.32250233584561        0.18957352302061
C            1.32862082977833       -0.95152179280996        0.01764488945604
N            2.59611878165764       -0.42118430217201       -0.21095236268327
C            2.93120601837032        0.49936138581433       -1.18992032517375
C            2.15659716563604        1.07439015714203       -2.18470983411016
C            2.77086904681495        1.94255333610735       -3.06482118440125
C            4.13458499128677        2.25587964046432       -2.99928759726523
C            4.71481414401909        3.22716273996893       -4.01686112386478
C            6.21150825610689        3.47324426776635       -3.80766502035930
C            4.51903004618332        2.65382242934590       -5.42755632759688
C            3.99025072888375        4.57537920091232       -3.89767437405592
C            4.90378074569904        1.65413903048149       -2.01693518412712
C            4.31153287139007        0.77666298978393       -1.11857757836666
C            4.83291118837356       -0.01149443982044       -0.03505283005534
C            6.10162149613036       -0.13747282479554        0.51524478184452
C            6.30073057669584       -0.97979062342115        1.59657578663416
C            7.66304636630201       -1.17431853325953        2.24595076657463
C            8.76310150613538       -0.35914790533598        1.56034945084348
C            7.58899275503042       -0.73362917162316        3.71472675082984
C            8.05069799109175       -2.65760951394123        2.16629714724036
C            5.19878801683531       -1.67111986983174        2.11707304922846
C            3.92746229873445       -1.56413579039514        1.59037211944751
C            3.74739490279432       -0.74005496744131        0.49099931812816
C            0.21840640678577       -0.11198254103008        0.06766326116879
H           -4.79369934791063        6.48542646826122        3.46316219031276
H           -4.78105626377707        5.76977041098968        1.85527898318962
H           -5.38946818692104        4.84503577927436        3.24046779806692
H           -2.08347673248176        4.47623086649378        4.95607669549912
H           -3.77962322999834        4.00217016152801        5.00463486339676
H           -3.32510111673313        5.69172443505978        5.24628909459795
H           -1.20341532697823        5.82982476692762        2.97296421550331
H           -2.43748036144487        7.05329668586977        3.26014774170869
H           -2.30255372221449        6.28761961818633        1.67429557500940
H           -0.93278823469987        3.62181218918337        3.22553179255988
H           -0.32266360324319        1.56086944717147        2.10054094027537
H           -4.84880363070794        3.51712689628048        1.48994753040818
H           -6.18500705936321        1.92214496191450       -0.12843100399435
H           -6.77905900176899        1.02767867604036       -3.68012653687494
H           -8.28999848077091        0.12165113529937       -3.80534447112541
H           -6.74950900025593       -0.73204603679362       -3.76575324624582
H           -8.35728924174115        1.23721405259356       -0.28717832724045
H           -9.23709440863135        1.16420563157679       -1.80966308792057
H           -7.81289573235998        2.18920244873205       -1.68046688096462
H           -7.55080207368097       -2.11062160997776       -1.76816482014689
H           -9.09627628229272       -1.26583178573475       -1.80296806386634
H           -8.13488623139220       -1.29144809495517       -0.32168080188745
H           -5.40357232345600       -1.71452669448481       -2.25864924625055
H           -3.13988595658966       -1.78698002585110       -1.40772194993333
H           -2.19539191007041       -2.40076396864853        0.68376346729079
H           -1.76050193318279       -6.23042306181748        1.83850154268134
H           -4.84822494231939       -6.34787561448698       -0.84912835553914
H           -1.74683774703043       -3.82818305416168       -1.72270448393916
H            2.00499706593065       -2.99247465624675        0.13212885556938
H            1.10660125261555        0.84522125209158       -2.28940323813645
H            2.16156699862871        2.38817160482978       -3.83621222116921
H            6.57025229844286        4.17978919646265       -4.55354589967584
H            6.40457610171545        3.89613385027249       -2.82444455734767
H            6.77899382628901        2.55220006360863       -3.91879643516398
H            3.46604021102906        2.52198388483623       -5.66018257475268
H            5.00983070811734        1.68627221776373       -5.51084815647350
H            4.94967070541698        3.32456791947951       -6.16815079487096
H            4.40616914391653        5.28833226938101       -4.60657811855548
H            2.92775643094408        4.47535743689202       -4.10092299853095
H            4.10855226553108        4.97764338905659       -2.89359382708595
H            5.96092988401864        1.84207106276348       -1.93213266185406
H            6.90831518324401        0.43280504420262        0.08602471655906
H            8.87019862130453       -0.64678047095990        0.51697748856294
H            9.71329071404463       -0.54216973993926        2.05823510152587
H            8.55456535148389        0.70670736189869        1.61812781172390
H            8.56170450063908       -0.84565404505629        4.18921811870603
H            7.29159045545807        0.31114145207375        3.77877387368307
H            6.86921030064516       -1.32687289645070        4.27162027098494
H            7.33689746847591       -3.28400554666580        2.69367461838308
H            8.08545151158756       -2.98114109765771        1.12800444501718
H            9.03216033970692       -2.81302697102575        2.60956441042071
H            5.33450330514307       -2.31811197316174        2.96999535290551
H            3.10502272933362       -2.10343791547683        2.03521349311251
H            0.34359574936705        0.95114149196173       -0.06570653681321
