110
 energy: -152.634018759882 gnorm: 0.000062866709 xtb: 6.7.1 (edcfbbe)
C           -4.23498596080313       -4.53772684322441       -3.17373638271445
C           -3.78981791304410       -3.29798673314734       -3.96274311859763
C           -4.97580674737683       -2.73474657664621       -4.75841748268136
C           -2.71267517300928       -3.73344870841742       -4.95991741398568
C           -3.29932586610247       -2.23931716399458       -2.98522957857446
C           -2.00422707851895       -1.71807006717800       -3.03100746768125
C           -1.55038249896140       -0.76480488231898       -2.13667741326403
C           -2.41735162901154       -0.32258716715414       -1.15272812863942
C           -3.74138954811389       -0.80813586511096       -1.10577612112405
C           -4.17041312804437       -1.76117645174536       -2.01471398095350
C           -4.39326220968771       -0.11878807280316       -0.02473902014576
C           -5.66986788615500       -0.18760381877680        0.50820690516363
C           -6.01251351073456        0.60104491940268        1.59910336166484
C           -7.42456805812841        0.51391849927843        2.16078854453838
C           -7.65159592967408        1.44933907764125        3.35143253164490
C           -7.68916639934436       -0.92441939551998        2.62823489961943
C           -8.42493911788365        0.89511306554066        1.06020040457841
C           -5.03694898971431        1.43665724324588        2.14796332755872
C           -3.75427127371993        1.52359486286660        1.63644338130869
C           -3.43566460414991        0.75715498934687        0.52893439801465
N           -2.24037884490283        0.62687027257191       -0.15940229306273
C           -1.06670963439061        1.33063033035632        0.10732565584730
C           -1.11178381701070        2.70810602288208        0.30663078986986
C            0.05896911989925        3.40302495480878        0.59506883059586
C            0.06351967920784        4.86268559722005        0.85181226829844
O            0.94312400893115        5.41323527886110        1.48004740211619
C           -1.07167595456498        5.64038968061231        0.29037864502823
C           -1.57307711440159        5.45863725913364       -0.99945034846885
N           -2.57253785014934        6.18125957621570       -1.47085818794444
C           -3.06762323679348        7.11343514920112       -0.67667997995423
N           -2.65039576969083        7.40247802210273        0.54303243679240
C           -1.66298506908567        6.67148007974567        1.02420722988727
C            1.27089575433841        2.72487286925068        0.68522498898832
C            1.32587150289730        1.35487776034734        0.44966985409222
N            2.54263918258221        0.68012753696289        0.51100732868174
C            2.78176090918350       -0.52227512723239        1.15655163046830
C            1.94170262308905       -1.31360462944893        1.92377037827408
C            2.46339089661143       -2.46379208675188        2.48140150637730
C            3.79769330611916       -2.85518254209833        2.31373946143649
C            4.27117021222028       -4.14944806970139        2.95870961482977
C            5.74867030629942       -4.43887739320723        2.67996105658306
C            4.08314413578947       -4.05463664357740        4.47934658693445
C            3.44479102850718       -5.31828257175748        2.40360596243455
C            4.63633256756977       -2.03813268685311        1.57340741509106
C            4.13735053635718       -0.87598267118964        1.00130409556948
C            4.74662090371488        0.16554261202376        0.21924104851130
C            6.03184661451108        0.35959732116481       -0.25994273088806
C            6.32675557842874        1.47964674844458       -1.02626663302647
C            7.75036826885448        1.67950269757191       -1.52653040882965
C            8.14408013513946        0.48772892740326       -2.41075875937638
C            7.91871414728726        2.95846783330614       -2.35114531761147
C            8.69466338749982        1.76524538245523       -0.31889791596475
C            5.29669850228520        2.37816900816704       -1.31490815401398
C            4.00488039887517        2.20788590795713       -0.84992118040581
C            3.73242376073947        1.10623561962365       -0.05781189930475
C            0.15245237358077        0.66078262367161        0.16415326391773
H           -4.57525124862511       -5.31440144298545       -3.85548093823502
H           -3.40425242997789       -4.92980879005354       -2.59054005807817
H           -5.04810931203983       -4.30387792504577       -2.49232959713002
H           -4.67299300885600       -1.84277121530069       -5.30301600457907
H           -5.80191441727011       -2.46949941648742       -4.10463012786065
H           -5.33160197045339       -3.47263936719046       -5.47446692667961
H           -2.38708080910465       -2.89832120059335       -5.57581035510443
H           -3.11916141586322       -4.49724278330482       -5.61995654199676
H           -1.85213359172032       -4.15709004283770       -4.44721163463985
H           -1.31488373238642       -2.05490187750727       -3.78723281217244
H           -0.54751454743153       -0.37469993075897       -2.22521304201794
H           -5.18725306965191       -2.11719960256045       -1.95571261791424
H           -6.38382546556491       -0.86459323688125        0.06528431022372
H           -6.99210606884940        1.19877536574598        4.17913381173229
H           -8.67780725028268        1.34854116816305        3.69928029228213
H           -7.49390763735799        2.48791973687694        3.06972572610343
H           -7.60971058177278       -1.62973823761773        1.80575104405796
H           -8.68903891440236       -1.00407433197804        3.04973526891736
H           -6.96855332216376       -1.20962739242237        3.39199860067033
H           -8.23104194861326        1.90710634837299        0.71062543827426
H           -9.44144799259082        0.85178461185733        1.44571304330710
H           -8.35515973843244        0.22270348346009        0.20981361092031
H           -5.26926604914268        2.04316109004582        3.00747621757331
H           -3.02559938317009        2.16534167224971        2.10934304784412
H           -2.05929887552595        3.21979461939051        0.24200685575739
H           -1.15017953565469        4.72678760225565       -1.67662551070884
H           -3.88841207668499        7.70131466166107       -1.06597158031384
H           -1.32876968206140        6.89796148897824        2.02841857158987
H            2.15895655237596        3.27579419789415        0.95262990602481
H            0.91234505158010       -1.04150894809585        2.10258113118138
H            1.80222738551326       -3.07706755654911        3.07438721102149
H            6.03002306146223       -5.37674070800028        3.15480670234021
H            5.93389980909898       -4.53450074727936        1.61251046249693
H            6.38422371796996       -3.65470835245064        3.08480098948529
H            3.03799749221171       -3.91909226198065        4.74297167129934
H            4.64627013891073       -3.21205417305154        4.87536505234103
H            4.43945528963763       -4.96420889867481        4.95848497963955
H            3.78180877519720       -6.25632773601832        2.83984395542777
H            2.38834728232039       -5.19979736790010        2.62753543926900
H            3.55916442096280       -5.37905245469972        1.32318832196704
H            5.67698423815398       -2.27654900666745        1.43096898084835
H            6.79007238810020       -0.37274071279182       -0.02971952725249
H            8.10970798210964       -0.44602410066293       -1.85655070980965
H            9.15471024879836        0.62056527606681       -2.79128910344842
H            7.46431703826747        0.40688644557377       -3.25656920991810
H            8.95510013228703        3.04836606603095       -2.67079576557479
H            7.29479118969265        2.93646189012963       -3.24171741542439
H            7.67209349606443        3.83930049394528       -1.76292247980836
H            8.40839535106519        2.59593069365429        0.32285524501116
H            8.66672517717917        0.85408411824673        0.27206090820652
H            9.71806968121628        1.92345278102179       -0.65276719502706
H            5.49333299025094        3.24447758260404       -1.92426236608446
H            3.23674529311098        2.91913644039204       -1.11391890850054
H            0.18631986473453       -0.40350557782737       -0.00722565500246
