  110
       -152.56445636
 C         -4.6604624906        5.4917049010        3.0920558747
 C         -3.2449521354        4.9583216901        3.3291289743
 C         -3.0937357770        4.6575295314        4.8270554176
 C         -2.2488532826        6.0507032273        2.9144572408
 C         -2.9553870529        3.6943092225        2.5344871087
 C         -1.6944986223        3.0947247832        2.6517547609
 C         -1.3398500972        1.9519499296        1.9638704122
 C         -2.2790672533        1.3859633530        1.1146201310
 C         -3.5655598868        1.9545483273        0.9988892411
 C         -3.8955238090        3.1029672040        1.7024642925
 C         -4.3033585264        1.1115974003        0.0954488031
 C         -5.5939129819        1.1663995383       -0.4089257201
 C         -6.0269216809        0.1943141195       -1.2998465422
 C         -7.4310189859        0.1851488079       -1.8835025641
 C         -7.3415082568        0.2911507948       -3.4122664778
 C         -8.2874715005        1.3480173550       -1.3766647492
 C         -8.1266313025       -1.1263912783       -1.4930603017
 C         -5.1291714754       -0.8115541680       -1.6816224486
 C         -3.8392756926       -0.8859596543       -1.1981550532
 C         -3.4268158426        0.0732569242       -0.2859469152
 N         -2.2045375454        0.2523537422        0.3291766055
 C         -1.0946318731       -0.5961967142        0.2326320013
 C         -1.2472471146       -1.9603527059        0.4534804298
 C         -0.1337706089       -2.8031850971        0.4150243056
 C         -0.2098559118       -4.2521433067        0.7146456208
 O          0.7295894532       -4.7938171513        1.3381444364
 C         -1.3533412031       -4.9761828362        0.2588770054
 C         -1.5504790806       -6.3236752570        0.6875198433
 N         -2.5598599425       -7.0314990564        0.2934033288
 C         -3.4430081265       -6.5269689699       -0.5640188111
 N         -3.3084460669       -5.3120928674       -1.0913842550
 C         -2.3061977153       -4.5703574369       -0.7107292963
 C          1.1293385539       -2.2522487793        0.1922498013
 C          1.2792512620       -0.8892021886       -0.0163872220
 N          2.5519590969       -0.3593862914       -0.2489668764
 C          2.8997792741        0.5031741426       -1.2681481922
 C          2.1374862235        1.0208709263       -2.3050623480
 C          2.7589210452        1.8560538029       -3.2113492585
 C          4.1167918071        2.1914617719       -3.1310033771
 C          4.7058947335        3.1265763389       -4.1756794273
 C          6.1938232203        3.4045049491       -3.9453401526
 C          4.5487562217        2.4916948631       -5.5647677974
 C          3.9585831836        4.4671759851       -4.1285185466
 C          4.8752451962        1.6451454680       -2.1045793635
 C          4.2767355830        0.8022427884       -1.1811313937
 C          4.7800313027        0.0742647053       -0.0455917088
 C          6.0344976941       -0.0176911598        0.5376006983
 C          6.2125944068       -0.8106656684        1.6631437838
 C          7.5616957454       -0.9706897141        2.3461695281
 C          8.6656553319       -0.1530600612        1.6698591358
 C          7.4498060250       -0.5037057762        3.8045991716
 C          7.9684713804       -2.4505868474        2.3032511574
 C          5.1032501848       -1.4866554200        2.1888772836
 C          3.8429518311       -1.4094411345        1.6320673077
 C          3.6844042097       -0.6340221602        0.4923220861
 C          0.1642294761       -0.0535302108       -0.0126181704
 H         -4.8083541293        6.3973496907        3.6767506404
 H         -4.8151203919        5.7401883848        2.0446563798
 H         -5.4092511812        4.7669248564        3.4028187839
 H         -2.0832530028        4.3411074867        5.0694954587
 H         -3.7786994021        3.8654459776        5.1220874099
 H         -3.3211773947        5.5463672431        5.4116511223
 H         -1.2243357835        5.7539952010        3.1204118933
 H         -2.4529733495        6.9694910291        3.4600333396
 H         -2.3370323866        6.2547747918        1.8493444185
 H         -0.9595800325        3.5328006022        3.3093011753
 H         -0.3644844665        1.5101672014        2.0999907739
 H         -4.8856262242        3.5115508284        1.5896794493
 H         -6.2366157533        1.9726608518       -0.0975900410
 H         -6.8209774188        1.2031517989       -3.6959984495
 H         -8.3396094625        0.3145753584       -3.8444102048
 H         -6.8072518900       -0.5526263634       -3.8384831518
 H         -8.4018641812        1.3084879506       -0.2964765365
 H         -9.2787981417        1.2877754730       -1.8211774913
 H         -7.8531162377        2.3045528179       -1.6557894587
 H         -7.5927237700       -1.9899516488       -1.8800669220
 H         -9.1387685123       -1.1452791591       -1.8916463028
 H         -8.1799711117       -1.2162634459       -0.4097253311
 H         -5.4451875873       -1.5668465413       -2.3839094979
 H         -3.1747588027       -1.6661602843       -1.5340648851
 H         -2.2189084451       -2.3419109221        0.7275897742
 H         -0.8284431531       -6.7609190210        1.3650319589
 H         -4.2831699549       -7.1309676667       -0.8604541312
 H         -2.2011963330       -3.6175846813       -1.2148252628
 H          1.9841203506       -2.9094208617        0.1615904620
 H          1.0935300600        0.7703889437       -2.4166580852
 H          2.1616956440        2.2572292413       -4.0155962224
 H          6.5582565853        4.0831541864       -4.7138378261
 H          6.3593245316        3.8734555946       -2.9781308461
 H          6.7772506374        2.4886856340       -4.0041462220
 H          3.5033443359        2.3331739817       -5.8139141931
 H          5.0564177403        1.5299162781       -5.5976450384
 H          4.9848597585        3.1385651985       -6.3229998586
 H          4.3807628890        5.1562809473       -4.8567918477
 H          2.9027879089        4.3426526143       -4.3516365607
 H          4.0478350726        4.9123265954       -3.1397015791
 H          5.9270856680        1.8551406096       -2.0074408702
 H          6.8497014022        0.5352038977        0.1018515046
 H          8.8094272232       -0.4662243323        0.6383762218
 H          9.6040078920       -0.3048375678        2.1993880600
 H          8.4360348159        0.9098439238        1.6931042855
 H          8.4156658037       -0.5870590646        4.2982783704
 H          7.1308162526        0.5358993773        3.8432344656
 H          6.7328149696       -1.1009577200        4.3603370047
 H          7.2456358679       -3.0761655726        2.8189401433
 H          8.0385950148       -2.7909087438        1.2722212854
 H          8.9376600604       -2.5862084524        2.7785188493
 H          5.2247718673       -2.0980113803        3.0693303214
 H          3.0137415910       -1.9374296887        2.0765108073
 H          0.2756627147        1.0070983782       -0.1728331535
