110
 energy: -152.568583097765 gnorm: 0.000109217727 xtb: 6.7.1 (edcfbbe)
C           -4.61189187825474        5.54423909216680        3.05749613892077
C           -3.20122472827085        4.99994548028008        3.29876231741763
C           -3.05458257216472        4.70344215066358        4.79806231463557
C           -2.19567152775703        6.08268249565274        2.88136411612633
C           -2.92123924144038        3.73025712304616        2.50952392504660
C           -1.66421337316375        3.12293588027360        2.62808304441550
C           -1.31760999534060        1.97510632834633        1.94448257937259
C           -2.26117478074601        1.41165851840016        1.09867825509163
C           -3.54453597472127        1.98695529453963        0.98326618493573
C           -3.86621803951944        3.14087913360057        1.68215788223980
C           -4.28976376772388        1.14436290720097        0.08582648253900
C           -5.58293276558270        1.20226029686396       -0.41237493041938
C           -6.02467908871815        0.22792171661764       -1.29605786036974
C           -7.43337846041039        0.21811214233386       -1.86886018640777
C           -7.35663238066752        0.32099326848754       -3.39889243771242
C           -8.28580496937530        1.38214951872956       -1.35611455842584
C           -8.12617288657893       -1.09261098285149       -1.46951023797539
C           -5.13215752842969       -0.78164720812374       -1.68012587219500
C           -3.84015497250226       -0.85904223693364       -1.20291728767258
C           -3.42019132336478        0.10020642947827       -0.29452421402263
N           -2.19471364957252        0.27422894526168        0.31708948774886
C           -1.09304111120426       -0.58419546704665        0.22270277737430
C           -1.25999065126927       -1.94752321974266        0.44262646516567
C           -0.15656634781441       -2.80115418221255        0.39868662685939
C           -0.25352327238834       -4.25038654400338        0.69680722710877
O            0.67788799468133       -4.80073638527325        1.33023978898800
C           -1.40089055660665       -4.96090728973624        0.23753234636894
C           -1.61505347306841       -6.30531766731929        0.66738439764968
N           -2.63595957377562       -6.99714118661714        0.27622803494814
C           -3.51564736974456       -6.48135348290041       -0.57823626862874
N           -3.36474547943840       -5.26913179716087       -1.10709934687796
C           -2.35069696445096       -4.54181585679305       -0.73027516154344
C            1.11136377983548       -2.26656224835154        0.17182269537556
C            1.27735102023299       -0.90327823460669       -0.02969489765263
N            2.55603523823449       -0.38792973945798       -0.25770610080681
C            2.91585703539572        0.48395621947620       -1.26566779339100
C            2.16059962128727        1.03031002713492       -2.29278786911763
C            2.79377828292572        1.87017044658821       -3.18668517681460
C            4.15709587658754        2.18190995699020       -3.10436782796445
C            4.75903678984546        3.12531341474028       -4.13427202174988
C            6.25303279696978        3.37075310312961       -3.90586415871979
C            4.58398858687890        2.52018003735915       -5.53448119802693
C            4.03734268842443        4.47849135943264       -4.05791013195990
C            4.90830667262145        1.60619830508326       -2.08921603445516
C            4.29757517374028        0.75887139861564       -1.17758785578060
C            4.79170643248624        0.00689904043985       -0.05399909968521
C            6.04655240653594       -0.11354434640934        0.52377133646503
C            6.21473803129884       -0.92247435622184        1.63896717998185
C            7.56273202327831       -1.11273551951691        2.31665569698529
C            8.68390160977505       -0.32842476308882        1.62919676370574
C            7.46789347947106       -0.63234910816391        3.77192568186320
C            7.93333427013902       -2.60235497389822        2.28330379589412
C            5.09503224062532       -1.58312562161268        2.16200292117607
C            3.83476873982842       -1.47893181707210        1.60937432277315
C            3.68622241673349       -0.68993644485864        0.47787162077107
C            0.17175556625733       -0.05617120825649       -0.02068395061405
H           -4.75291076112180        6.45366857185394        3.63805634599125
H           -4.76294977325649        5.78931911871051        2.00868629098389
H           -5.36732490072895        4.82719675691955        3.37032782139565
H           -2.04746065587994        4.37789336509840        5.04262322889881
H           -3.74766889815204        3.91916887577404        5.09532796269526
H           -3.27379861836590        5.59666406174271        5.37916175172309
H           -1.17383223403581        5.77856833030661        3.08984819159761
H           -2.39300336408571        7.00518687640663        3.42321052772294
H           -2.28077282822585        6.28343818704835        1.81531336390535
H           -0.92570694166090        3.55890484959820        3.28304727143153
H           -0.34483339291181        1.52794620416948        2.08181810024272
H           -4.85394398699984        3.55505016842488        1.56877767517550
H           -6.22075971679757        2.01235137380826       -0.10078273241676
H           -6.84189746638558        1.23476462615758       -3.68898942105483
H           -8.35839426892229        0.33960157467663       -3.82277417277025
H           -6.82244773042462       -0.52192214371468       -3.82787938779815
H           -8.39044556258230        1.34397064931038       -0.27425973050905
H           -9.28116612033255        1.32072904514121       -1.79138104044524
H           -7.85450493644421        2.33917479330397       -1.64081507424105
H           -7.59625002263486       -1.95736939624726       -1.85842007226047
H           -9.14198907039069       -1.11227933130940       -1.85854200764221
H           -8.16973957447859       -1.17925430718093       -0.38577546246716
H           -5.45395247309806       -1.53773653658243       -2.37903470754764
H           -3.17986443816315       -1.64179171513133       -1.54124751575511
H           -2.23535512661722       -2.31913950251286        0.71702812772397
H           -0.89735510564406       -6.75244792662987        1.34310753759177
H           -4.36572847334398       -7.07336556513774       -0.87032859003356
H           -2.23374509422224       -3.59099772701731       -1.23486758875716
H            1.95876945698820       -2.93277433018777        0.13421628408232
H            1.11249388037387        0.79902991173326       -2.40707854680773
H            2.20116864420718        2.29466895946554       -3.98237261118503
H            6.62700354587807        4.05619223338279       -4.66369493441037
H            6.43169083445294        3.81892615367049       -2.93113932182037
H            6.81857847629911        2.44513881009011       -3.98380630788120
H            3.53467664997964        2.38721426036403       -5.78222366134814
H            5.07230810569950        1.54934411421761       -5.58774175157811
H            5.02988408581595        3.17260053701718       -6.28219876833433
H            4.46871770747530        5.17331046443343       -4.77531662985837
H            2.97823134454394        4.37781215062290       -4.27762427762793
H            4.13986014592871        4.90317669062680       -3.06135700953737
H            5.96375900334160        1.79675158028268       -1.99099023350391
H            6.86952361054578        0.43058360195081        0.09156576087819
H            8.80859474768870       -0.64716275681544        0.59688065933168
H            9.62220439833167       -0.50679662867220        2.15050923346307
H            8.48600632207684        0.74082009662810        1.65275154408910
H            8.43164942636259       -0.74114622182852        4.26479845066045
H            7.18016210479025        0.41660139655552        3.80367973793428
H            6.73370828656087       -1.20396081463034        4.33235929333599
H            7.20174093010731       -3.20622199085953        2.81231917455946
H            7.98474262392013       -2.95357957921809        1.25479730851112
H            8.90387570971845       -2.75688590176798        2.75001365249998
H            5.20786405417131       -2.20380147435333        3.03712001561670
H            2.99806288224394       -1.99637604201698        2.05224546248629
H            0.29504133460384        1.00384504758694       -0.17639697712487
