  99
  -149.234939777500       0.213783519113716      !
 C         -1.2442457000       -4.8490538658       -1.1699175624
 C         -0.8542322973       -3.6168333098       -0.4214958850
 N          0.4138627609       -3.2400367392       -0.5005729193
 C          0.7713493352       -2.1605733251        0.1922586364
 N          2.0864889038       -1.7105698006        0.1421175840
 C          2.6941555118       -1.2799996849        1.3231840756
 C          2.3911490173       -1.9035160076        2.5331122794
 C          3.0253127814       -1.5161507475        3.6959147393
 C          3.9848174665       -0.5174640601        3.6635512145
 C          4.3009810086        0.0924655578        2.4629348071
 C          3.6642059340       -0.2769081350        1.2870598440
 C          3.9174554678        0.4246049062       -0.0308260224
 C          2.8354190596        1.4772964256       -0.2715655002
 C          1.9617630528        1.8786990989        0.7306253173
 C          0.9931877576        2.8368341699        0.4827736413
 C          0.8846490098        3.4135693155       -0.7699269656
 C          1.7540651384        3.0243039960       -1.7750196596
 C          2.7175915042        2.0634515660       -1.5281185022
 C          5.3062725501        1.0390127042       -0.0113266696
 C          6.4022994844        0.1838029052        0.0725746038
 C          7.6878113820        0.6862363819        0.1241161570
 C          7.9000234674        2.0553368644        0.0981490285
 C          6.8168525057        2.9118168999        0.0252366202
 C          5.5270304169        2.4082855392       -0.0262264456
 C          3.7933604824       -0.6042579856       -1.1445836471
 C          4.5531045580       -0.5167820131       -2.3021260197
 C          4.3506704486       -1.3884409406       -3.3569199188
 C          3.3740806352       -2.3639875667       -3.2593229536
 C          2.6234984272       -2.4843559673       -2.1063819438
 C          2.8247788958       -1.6091148937       -1.0430601849
 C         -0.1470439612       -1.4372313003        0.9442598388
 C         -1.4671107649       -1.8820245689        0.9084583915
 N         -2.4936876164       -1.1704324109        1.4689396838
 C         -2.3171360684        0.1696887939        1.8786295913
 C         -1.5548334675        0.4913835334        2.9914169802
 C         -1.4274878399        1.8159920037        3.3715622612
 C         -2.0676112663        2.8085008360        2.6490692550
 C         -2.8379122523        2.4850465767        1.5434262539
 C         -2.9735603739        1.1641979042        1.1502607386
 C         -3.7436742533        0.6912399010       -0.0714992431
 C         -4.6336735242        1.7808285420       -0.6254636625
 C         -4.4865748613        2.2748706542       -1.9131705858
 C         -5.3237999953        3.2747896312       -2.3804980650
 C         -6.3154467318        3.7934659937       -1.5676920511
 C         -6.4667203003        3.3085482465       -0.2786145415
 C         -5.6320957105        2.3111378041        0.1882901738
 C         -2.7300210133        0.1762472467       -1.0979499767
 C         -1.4377898643        0.6836573944       -1.1466273115
 C         -0.4990594167        0.1440327453       -2.0087282337
 C         -0.8416928732       -0.9015791952       -2.8465002385
 C         -2.1391495411       -1.3837870664       -2.8362513687
 C         -3.0759132110       -0.8494461055       -1.9707730725
 C         -4.5419728885       -0.5220033254        0.3859112084
 C         -5.8618224542       -0.7789162428        0.0551830899
 C         -6.4556980617       -1.9701070412        0.4403342415
 C         -5.7334988058       -2.9170169183        1.1458337081
 C         -4.4152268635       -2.6720431732        1.4876373599
 C         -3.8280913227       -1.4769866054        1.1097597110
 N         -1.8024849286       -2.9984551375        0.2520413401
 H         -2.3237628882       -4.9585441925       -1.1498540876
 H         -0.7797738540       -5.7193032457       -0.7099720050
 H         -0.8898949445       -4.7826280860       -2.1954033770
 H          1.6584322041       -2.6967430396        2.5500711028
 H          2.7773166170       -2.0021689846        4.6277931558
 H          4.4832243359       -0.2113068756        4.5706583742
 H          5.0394215669        0.8800297060        2.4410085394
 H          2.0369986013        1.4523724322        1.7201296078
 H          0.3200369767        3.1294805615        1.2762490182
 H          0.1279998592        4.1598192165       -0.9631794711
 H          1.6808353189        3.4684517963       -2.7569778452
 H          3.3874197884        1.7652861964       -2.3211245468
 H          6.2385356844       -0.8842572498        0.0978597419
 H          8.5270091728        0.0090060409        0.1873312800
 H          8.9043619234        2.4503850330        0.1386035082
 H          6.9718771010        3.9808771677        0.0110302799
 H          4.6919603319        3.0914220981       -0.0737662997
 H          5.3108084231        0.2494626666       -2.3831480772
 H          4.9483795737       -1.2984618353       -4.2514766970
 H          3.2031790853       -3.0452001264       -4.0798045107
 H          1.8707030240       -3.2488317083       -2.0116157459
 H          0.1447638896       -0.5345211094        1.4517575977
 H         -1.0701808520       -0.2928958344        3.5535765193
 H         -0.8291508685        2.0711693274        4.2334174216
 H         -1.9658928023        3.8425031880        2.9442180054
 H         -3.3206161032        3.2674752272        0.9770598680
 H         -3.7149142117        1.8789450753       -2.5566206822
 H         -5.1979302827        3.6489126457       -3.3860581682
 H         -6.9675011359        4.5723793958       -1.9343569513
 H         -7.2371721618        3.7087133536        0.3642981197
 H         -5.7511556712        1.9347546547        1.1948470153
 H         -1.1484470993        1.4963686790       -0.4969976225
 H          0.5066942545        0.5371557848       -2.0138519256
 H         -0.0999329996       -1.3352722036       -3.5006282659
 H         -2.4235525599       -2.1909178195       -3.4951270416
 H         -4.0803806119       -1.2459723168       -1.9634605598
 H         -6.4235322254       -0.0595725858       -0.5223462974
 H         -7.4840458790       -2.1626074829        0.1730090232
 H         -6.1977274112       -3.8487102036        1.4321553385
 H         -3.8344948142       -3.4003956172        2.0298185033
  99
  -149.234881674100       0.201035034113716      !
 C          0.0628611931       -4.8849644274       -1.3941615277
 C          0.0101387621       -3.6448912414       -0.5631834849
 N          1.1312974248       -3.2595787800        0.0114957029
 C          1.1017840738       -2.1255472274        0.7212112031
 N          2.3039371833       -1.6614215203        1.1858806654
 C          2.4551532684       -0.3182661313        1.5961962623
 C          1.8734991730        0.1526734508        2.7637347498
 C          2.0556495985        1.4741454941        3.1324900773
 C          2.8248930200        2.3132512533        2.3445867815
 C          3.4206384966        1.8371347246        1.1875052198
 C          3.2461018706        0.5176846437        0.8048376045
 C          3.8109969388       -0.1035496349       -0.4613903101
 C          2.6508803783       -0.4012332719       -1.4159768741
 C          1.4584529468        0.3071237004       -1.3490402738
 C          0.3814866745       -0.0462910650       -2.1437110322
 C          0.4859965208       -1.1028055073       -3.0295551191
 C          1.6858818832       -1.7852285435       -3.1359764932
 C          2.7589120912       -1.4381795260       -2.3365978793
 C          4.8708086688        0.7780163567       -1.0823266428
 C          6.0184586549        1.0674754804       -0.3478265256
 C          7.0085598425        1.8742439454       -0.8752845682
 C          6.8655450731        2.4079984769       -2.1458819892
 C          5.7259168952        2.1305389729       -2.8789383372
 C          4.7331647700        1.3211493945       -2.3511614096
 C          4.3608339917       -1.4623823869       -0.0479561910
 C          5.5685736386       -1.9949994690       -0.4661069307
 C          5.9157452930       -3.2899475402       -0.1158617867
 C          5.0535710029       -4.0663490784        0.6389910624
 C          3.8454046924       -3.5458148082        1.0677118286
 C          3.5070938914       -2.2474859087        0.7270055528
 C         -0.0870776958       -1.4253146472        0.9097434954
 C         -1.2157295649       -1.9295322837        0.2719410167
 N         -2.4123818059       -1.2387543313        0.4020569163
 C         -2.7363414292       -0.6750342991        1.6398458450
 C         -2.4065605874       -1.3383519456        2.8207918401
 C         -2.7676592244       -0.8073543242        4.0423420723
 C         -3.4791040247        0.3800943092        4.0999545671
 C         -3.8255311656        1.0317221029        2.9299402876
 C         -3.4618890707        0.5157564014        1.6945386905
 C         -3.7464954069        1.2305011416        0.3900270627
 C         -4.9302038564        2.1643236056        0.5710551560
 C         -4.8255948883        3.5439443401        0.4736507392
 C         -5.9368340367        4.3478025378        0.6717472472
 C         -7.1629277974        3.7846619352        0.9744608881
 C         -7.2739553252        2.4076914539        1.0839636419
 C         -6.1667791038        1.6059654957        0.8861398593
 C         -2.4978209492        1.9862824901       -0.0634042885
 C         -1.4443243935        2.2493603146        0.8027431159
 C         -0.3298013983        2.9471597987        0.3689969529
 C         -0.2521160722        3.3979034843       -0.9367960942
 C         -1.2991414013        3.1447997015       -1.8069891877
 C         -2.4100984218        2.4436064515       -1.3744448215
 C         -4.0440025017        0.1719684751       -0.6616822685
 C         -4.9601523755        0.3893786686       -1.6802563476
 C         -5.1436935363       -0.5439378222       -2.6849172456
 C         -4.3995283833       -1.7105643868       -2.6795156066
 C         -3.4941081603       -1.9547667508       -1.6651320976
 C         -3.3091944924       -1.0189820220       -0.6522564600
 N         -1.1597236239       -3.0279121943       -0.4794792630
 H          1.0620320842       -5.3063911386       -1.3532246552
 H         -0.1926923495       -4.6402470475       -2.4228512058
 H         -0.6647319382       -5.6067023297       -1.0298821195
 H          1.2869043818       -0.5145854827        3.3774265066
 H          1.5971471775        1.8463495966        4.0364409247
 H          2.9631784438        3.3457300218        2.6299804969
 H          4.0092037010        2.5021341339        0.5732886016
 H          1.3540534647        1.1328976305       -0.6610544046
 H         -0.5452094743        0.5015682548       -2.0568804953
 H         -0.3637458758       -1.3906007946       -3.6307225253
 H          1.7855759535       -2.6027735066       -3.8347805176
 H          3.6838384157       -1.9897719876       -2.4178237026
 H          6.1301892839        0.6550792719        0.6453600588
 H          7.8935208217        2.0881642643       -0.2937480225
 H          7.6386222858        3.0385296758       -2.5596429062
 H          5.6055820170        2.5451448187       -3.8691905885
 H          3.8468138362        1.1131752834       -2.9321192673
 H          6.2333884725       -1.4077333327       -1.0823862144
 H          6.8584386064       -3.6970114549       -0.4501011506
 H          5.3233904008       -5.0792830025        0.8972665626
 H          3.1586358777       -4.1370401757        1.6514993504
 H         -0.1311082247       -0.4993301751        1.4553162030
 H         -1.8687505606       -2.2735535956        2.7696033633
 H         -2.5013316053       -1.3263528119        4.9510897408
 H         -3.7618429372        0.7994174452        5.0535191972
 H         -4.3705175030        1.9627698914        2.9765864221
 H         -3.8741960679        4.0006843156        0.2447177255
 H         -5.8388720238        5.4207279780        0.5911832504
 H         -8.0274158284        4.4134431555        1.1283008740
 H         -8.2262512514        1.9583136719        1.3248394105
 H         -6.2545819463        0.5322897823        0.9748156609
 H         -1.4900616535        1.9183021223        1.8299571406
 H          0.4808461735        3.1362411130        1.0586522374
 H          0.6187051273        3.9397329753       -1.2753985014
 H         -1.2498959950        3.4916477101       -2.8289599403
 H         -3.2197710859        2.2497512859       -2.0625751734
 H         -5.5332989812        1.3053592540       -1.6930657491
 H         -5.8592921084       -0.3537106904       -3.4707583165
 H         -4.5320406205       -2.4424487728       -3.4625515193
 H         -2.9138979588       -2.8617233453       -1.6445110539
  99
  -149.234807356100       0.185830741542330      !
 C          0.0548339816       -4.9193814271       -1.3482059737
 C          0.0087398030       -3.6697906033       -0.5313215336
 N          1.1314989713       -3.2843265915        0.0401375592
 C          1.1070212499       -2.1441979051        0.7400668181
 N          2.3112413351       -1.6795023716        1.1982287028
 C          2.4632050425       -0.3363620405        1.6085847483
 C          1.8921984668        0.1309274012        2.7827164613
 C          2.0779279069        1.4512575084        3.1537341558
 C          2.8392686272        2.2928150167        2.3607217639
 C          3.4224575955        1.8207989607        1.1955929734
 C          3.2444252162        0.5024533409        0.8108416491
 C          3.7928956484       -0.1152945725       -0.4645399759
 C          2.6174620575       -0.4087539408       -1.4016470133
 C          1.4381040495        0.3209989746       -1.3296197165
 C          0.3458911174       -0.0231814670       -2.1072583597
 C          0.4216766444       -1.0921069937       -2.9812988633
 C          1.6084897116       -1.7960021046       -3.0934657597
 C          2.6970092102       -1.4579304252       -2.3110699250
 C          4.8418651387        0.7687500743       -1.1001372656
 C          5.9978505937        1.0630847923       -0.3808474447
 C          6.9787481540        1.8717546934       -0.9224812315
 C          6.8183042975        2.4019759162       -2.1924840273
 C          5.6706624783        2.1189780885       -2.9107840986
 C          4.6870004052        1.3079381110       -2.3686876304
 C          4.3520110486       -1.4729844273       -0.0604354920
 C          5.5560494194       -2.0011816696       -0.4945951801
 C          5.9125684281       -3.2947907687       -0.1488585101
 C          5.0639169882       -4.0739259464        0.6184259677
 C          3.8595583170       -3.5577965326        1.0632223188
 C          3.5117857301       -2.2611416026        0.7261830388
 C         -0.0790076572       -1.4374066072        0.9233524951
 C         -1.2076371624       -1.9378115331        0.2830871062
 N         -2.3994739972       -1.2344678088        0.3982873237
 C         -2.7346814750       -0.6735132215        1.6337549804
 C         -2.4188000843       -1.3422607603        2.8156414367
 C         -2.7898604274       -0.8148921210        4.0357063241
 C         -3.4981983080        0.3744768200        4.0911073282
 C         -3.8311464434        1.0313761071        2.9202259061
 C         -3.4568043522        0.5195352061        1.6862175351
 C         -3.7275997332        1.2434638997        0.3839351102
 C         -4.9206992374        2.1667794438        0.5587541864
 C         -4.8236656193        3.5485533833        0.4872298487
 C         -5.9435899278        4.3415971686        0.6796371245
 C         -7.1710049097        3.7653051623        0.9505654004
 C         -7.2745586126        2.3860010811        1.0344305564
 C         -6.1586155268        1.5950847921        0.8429141436
 C         -2.4786771551        2.0118399839       -0.0473124112
 C         -1.4268310664        2.2545855145        0.8266127704
 C         -0.3118200969        2.9629765176        0.4116142730
 C         -0.2316032138        3.4445613596       -0.8828906342
 C         -1.2770630182        3.2122226308       -1.7606967095
 C         -2.3884998002        2.5006273154       -1.3469065815
 C         -4.0043721576        0.1947038425       -0.6830454983
 C         -4.8986605891        0.4255552741       -1.7181770762
 C         -5.0627444166       -0.4950137346       -2.7377386027
 C         -4.3211012308       -1.6632544740       -2.7302664727
 C         -3.4392994909       -1.9218715749       -1.6989041095
 C         -3.2737027779       -0.9987372878       -0.6709017988
 N         -1.1569953959       -3.0436398820       -0.4574782299
 H         -0.6749064217       -5.6338097526       -0.9739686924
 H          1.0523022304       -5.3445420582       -1.3043464804
 H         -0.2021801132       -4.6857943308       -2.3791433941
 H          1.3108965854       -0.5383467880        3.3992361011
 H          1.6281801594        1.8208076435        4.0631547908
 H          2.9805721258        3.3243198126        2.6481176899
 H          4.0043807456        2.4879372102        0.5773812846
 H          1.3561784923        1.1560016542       -0.6497283627
 H         -0.5702723091        0.5413161832       -2.0165903360
 H         -0.4400336034       -1.3721868300       -3.5688839631
 H          1.6857801260       -2.6241454507       -3.7826017059
 H          3.6112071557       -2.0262755014       -2.3970997396
 H          6.1234642108        0.6529920817        0.6116190562
 H          7.8704496713        2.0893883391       -0.3527324032
 H          7.5842712584        3.0338142657       -2.6174007583
 H          5.5364503780        2.5312291291       -3.9003069159
 H          3.7940174414        1.0960937468       -2.9379874990
 H          6.2098956123       -1.4118884562       -1.1205708228
 H          6.8523140613       -3.6983370870       -0.4954420181
 H          5.3410702992       -5.0857033709        0.8734047881
 H          3.1824673281       -4.1515794338        1.6555566279
 H         -0.1190942281       -0.5079999756        1.4633586274
 H         -1.8842655682       -2.2794092818        2.7661932578
 H         -2.5340646968       -1.3384412836        4.9448912388
 H         -3.7885397859        0.7913106187        5.0434670091
 H         -4.3733958251        1.9641230534        2.9650681998
 H         -3.8713635760        4.0153514626        0.2837890480
 H         -5.8516669337        5.4163377770        0.6187701923
 H         -8.0424606971        4.3857199756        1.0994924999
 H         -8.2277462288        1.9263257779        1.2515534531
 H         -6.2404776273        0.5195004116        0.9123831984
 H         -1.4738838356        1.8991980963        1.8455833273
 H          0.4975105491        3.1355353777        1.1070762168
 H          0.6396580909        3.9945678663       -1.2067991617
 H         -1.2262493487        3.5833819779       -2.7739255632
 H         -3.1965726985        2.3230390386       -2.0411065778
 H         -5.4706623830        1.3422800011       -1.7315987200
 H         -5.7611932807       -0.2939250964       -3.5361749061
 H         -4.4378344644       -2.3853740637       -3.5248053681
 H         -2.8629306246       -2.8312559193       -1.6757902625
  99
  -149.234873332700       0.199268341374888      !
 C         -1.2409650012       -4.7092244008       -1.4060048579
 C         -0.8383946601       -3.5313086389       -0.5804799538
 N          0.4389193524       -3.1799368222       -0.6192528308
 C          0.8054522087       -2.1364448934        0.1229440815
 N          2.1297172497       -1.7219070615        0.1318330479
 C          2.6876780091       -1.2677090323        1.3309390190
 C          2.3390200997       -1.8675998100        2.5400052481
 C          2.9252675755       -1.4523601846        3.7183527933
 C          3.8801960885       -0.4487721321        3.7025791443
 C          4.2434612847        0.1361062198        2.5027848985
 C          3.6569685161       -0.2639087410        1.3109281664
 C          3.9611855384        0.3965018104       -0.0176605324
 C          2.8640118949        1.4072781075       -0.3500815162
 C          1.9798000345        1.8742912153        0.6139987164
 C          1.0011825345        2.7979109788        0.2878502023
 C          0.8940670754        3.2744275262       -1.0065663323
 C          1.7742799473        2.8192400018       -1.9739064818
 C          2.7482297491        1.8926194639       -1.6487499060
 C          5.3287835192        1.0532986738        0.0438638573
 C          6.4413926166        0.2389331018        0.2416193278
 C          7.7078185256        0.7827126813        0.3308412907
 C          7.8838331244        2.1534117455        0.2285002640
 C          6.7837550902        2.9698678945        0.0411357619
 C          5.5128547024        2.4248452992       -0.0483625063
 C          3.9223986654       -0.6835550889       -1.0887426508
 C          4.7649653772       -0.6543192049       -2.1900824992
 C          4.6460250694       -1.5891580947       -3.2030470927
 C          3.6683732053       -2.5650948819       -3.1225004017
 C          2.8296430719       -2.6224783427       -2.0262655863
 C          2.9493229284       -1.6858272363       -1.0044847068
 C         -0.1184052083       -1.4168120783        0.8737499124
 C         -1.4410903426       -1.8486407162        0.8178404122
 N         -2.4610076448       -1.1567437170        1.4154493093
 C         -2.2829006690        0.1773163989        1.8437257502
 C         -1.4860151929        0.4880863770        2.9354090368
 C         -1.3459959497        1.8088123899        3.3246218805
 C         -2.0097126119        2.8084477183        2.6341104536
 C         -2.8212037753        2.4951538840        1.5553085850
 C         -2.9696159471        1.1783530307        1.1529934882
 C         -3.7923140250        0.7196254412       -0.0389965407
 C         -4.7147061516        1.8126068440       -0.5290255023
 C         -4.6265624300        2.3397944612       -1.8088394942
 C         -5.4935391676        3.3408429053       -2.2158716653
 C         -6.4559438027        3.8276554789       -1.3498799361
 C         -6.5465303107        3.3112424848       -0.0673481919
 C         -5.6819978262        2.3131086143        0.3394804576
 C         -2.8345050591        0.2169218915       -1.1232661236
 C         -1.5232608426        0.6680913212       -1.1960470987
 C         -0.6378054379        0.1213109176       -2.1088076496
 C         -1.0548174827       -0.8725783115       -2.9748854357
 C         -2.3726547981       -1.2956327481       -2.9409038168
 C         -3.2548567129       -0.7563429304       -2.0234342425
 C         -4.5598174414       -0.5082783105        0.4332491592
 C         -5.8913886063       -0.7706341101        0.1589629490
 C         -6.4559992607       -1.9759556280        0.5441066842
 C         -5.6921108740       -2.9322495447        1.1906521352
 C         -4.3614379690       -2.6819452558        1.4754939609
 C         -3.8034707145       -1.4719455026        1.1001956949
 N         -1.7850676582       -2.9333779250        0.1136929152
 H         -2.3011194542       -4.8996460378       -1.2731467320
 H         -0.6631349238       -5.5826373117       -1.1120499360
 H         -1.0300481426       -4.5038101656       -2.4532024885
 H          1.6086998421       -2.6632173331        2.5447237112
 H          2.6432421551       -1.9199810847        4.6499857979
 H          4.3393022398       -0.1197837145        4.6223841166
 H          4.9794889538        0.9261798091        2.4933979592
 H          2.0543786499        1.5256554147        1.6336584521
 H          0.3196474938        3.1431198999        1.0527236762
 H          0.1288530194        3.9927687384       -1.2614589059
 H          1.7002741854        3.1841766993       -2.9880948078
 H          3.4276098112        1.5423557776       -2.4119169409
 H          6.3053083102       -0.8300238913        0.3259960976
 H          8.5602090771        0.1367069491        0.4824460464
 H          8.8732557058        2.5808305156        0.2980213544
 H          6.9105599671        4.0400700191       -0.0344056200
 H          4.6638362833        3.0775947937       -0.1875378453
 H          5.5203510608        0.1150667202       -2.2613094843
 H          5.3100219109       -1.5472682009       -4.0534167979
 H          3.5641871455       -3.2953627387       -3.9112981658
 H          2.0693084834       -3.3809617024       -1.9472486270
 H          0.1778438379       -0.5321315997        1.4089529975
 H         -0.9841318951       -0.3011565002        3.4750148229
 H         -0.7188940118        2.0551302373        4.1683951966
 H         -1.8961942472        3.8395568301        2.9348629217
 H         -3.3264286345        3.2826008939        1.0161638997
 H         -3.8778879194        1.9687181044       -2.4931105361
 H         -5.4144527783        3.7406521112       -3.2163160210
 H         -7.1321634551        4.6065236256       -1.6700268045
 H         -7.2928740966        3.6873050918        0.6172902545
 H         -5.7525590219        1.9129724663        1.3414267061
 H         -1.1753957574        1.4401274806       -0.5257558741
 H          0.3847991188        0.4681766913       -2.1302174186
 H         -0.3553744063       -1.3128202387       -3.6700864719
 H         -2.7148758978       -2.0614871934       -3.6212637923
 H         -4.2755194511       -1.1081970699       -1.9959103762
 H         -6.4867105385       -0.0434752527       -0.3734235984
 H         -7.4946035713       -2.1718577112        0.3226536230
 H         -6.1339222852       -3.8750363884        1.4760757552
 H         -3.7492702353       -3.4169007496        1.9724883886
  99
  -149.234772509800       0.179103185096800      !
 C         -1.2416136205       -4.6717360192       -1.4526505662
 C         -0.8346251360       -3.5054387054       -0.6128409161
 N          0.4444914630       -3.1604398485       -0.6445403629
 C          0.8145489797       -2.1269850185        0.1100894987
 N          2.1412952423       -1.7236475576        0.1314731598
 C          2.6912883839       -1.2696748736        1.3348632638
 C          2.3332749088       -1.8682327167        2.5416311841
 C          2.9115944170       -1.4522188930        3.7236264310
 C          3.8673448317       -0.4492741632        3.7134338848
 C          4.2404408115        0.1337005430        2.5156791405
 C          3.6623105475       -0.2675130586        1.3202535340
 C          3.9765428595        0.3869101944       -0.0088532645
 C          2.8751728842        1.3868240981       -0.3593218518
 C          1.9826037916        1.8597767165        0.5939878845
 C          1.0001518123        2.7732270011        0.2508934845
 C          0.8980229748        3.2334937422       -1.0497962505
 C          1.7868913868        2.7723194119       -2.0063566978
 C          2.7645469330        1.8558585701       -1.6643326225
 C          5.3383399867        1.0545849243        0.0595277744
 C          6.4554169565        0.2519821025        0.2792685651
 C          7.7168119858        0.8069058817        0.3709909016
 C          7.8833556553        2.1771725149        0.2488816934
 C          6.7787689437        2.9822253188        0.0399361547
 C          5.5129626743        2.4260527020       -0.0518311854
 C          3.9540360015       -0.7016098488       -1.0719856040
 C          4.8128803498       -0.6834105932       -2.1607468288
 C          4.7062795880       -1.6267913782       -3.1672673598
 C          3.7250079025       -2.5995585270       -3.0929435912
 C          2.8694302143       -2.6454140608       -2.0090834416
 C          2.9766754593       -1.7002901792       -0.9940695076
 C         -0.1089150915       -1.4082000391        0.8627572675
 C         -1.4329741140       -1.8343197258        0.8010881309
 N         -2.4517686832       -1.1466251662        1.4064577117
 C         -2.2764760612        0.1882495446        1.8334168639
 C         -1.4727193022        0.5031733817        2.9189534664
 C         -1.3325865909        1.8249638180        3.3045419128
 C         -2.0035420428        2.8218514364        2.6171850815
 C         -2.8234049448        2.5043474090        1.5460148533
 C         -2.9723144358        1.1863961363        1.1474602702
 C         -3.8066955686        0.7252756509       -0.0352554329
 C         -4.7394614847        1.8160324259       -0.5105969938
 C         -4.6651872384        2.3520088142       -1.7876462366
 C         -5.5387316365        3.3533943128       -2.1795764702
 C         -6.4937292026        3.8321096297       -1.3009426016
 C         -6.5705974435        3.3067546357       -0.0211103596
 C         -5.6996176710        2.3081232473        0.3705800234
 C         -2.8629279240        0.2257907482       -1.1331834635
 C         -1.5455224078        0.6575154455       -1.2092631126
 C         -0.6752178771        0.1102039399       -2.1362344625
 C         -1.1140232794       -0.8643565409       -3.0133455323
 C         -2.4380359607       -1.2676131128       -2.9756162428
 C         -3.3047729424       -0.7283120445       -2.0437015498
 C         -4.5627471725       -0.5075886264        0.4427704632
 C         -5.8951476768       -0.7773396006        0.1797290475
 C         -6.4489449313       -1.9872046055        0.5661576264
 C         -5.6735442535       -2.9405208674        1.2032648292
 C         -4.3422081324       -2.6825938880        1.4772740682
 C         -3.7947114400       -1.4682602120        1.1003118356
 N         -1.7800091484       -2.9111140284        0.0863255978
 H         -1.0643560754       -4.4392457733       -2.5006199021
 H         -2.2949198882       -4.8808296753       -1.2958328151
 H         -0.6422510155       -5.5419990801       -1.1950777997
 H          1.6017883776       -2.6628138886        2.5417567065
 H          2.6225936574       -1.9185771261        4.6537371973
 H          4.3200859987       -0.1198513567        4.6362595440
 H          4.9774593415        0.9228502856        2.5107244780
 H          2.0535741209        1.5237753435        1.6181761217
 H          0.3126354888        3.1242885942        1.0077290151
 H          0.1303386234        3.9443468905       -1.3177920084
 H          1.7174133530        3.1253703040       -3.0250088580
 H          3.4507230978        1.5004111453       -2.4189883647
 H          6.3271200316       -0.8166785808        0.3780646647
 H          8.5727506218        0.1699219587        0.5398428400
 H          8.8688711196        2.6131935654        0.3197042825
 H          6.8979023406        4.0522080810       -0.0506785207
 H          4.6604251267        3.0702317299       -0.2079373207
 H          5.5701594266        0.0844274115       -2.2281319873
 H          5.3820157248       -1.5929700859       -4.0087772240
 H          3.6299647343       -3.3354639224       -3.8776236875
 H          2.1048896343       -3.4001594200       -1.9358628385
 H          0.1898223080       -0.5296970775        1.4064924275
 H         -0.9651772925       -0.2835926538        3.4568325329
 H         -0.6991325928        2.0743115397        4.1426286828
 H         -1.8892328642        3.8539195684        2.9142746884
 H         -3.3354423696        3.2894579313        1.0099462408
 H         -3.9220452926        1.9877620416       -2.4815451800
 H         -5.4702286623        3.7602689793       -3.1779749365
 H         -7.1745356365        4.6118736398       -1.6090597256
 H         -7.3111085980        3.6763915881        0.6732786373
 H         -5.7596810244        1.9008194134        1.3703400806
 H         -1.1804694242        1.4143250355       -0.5309339356
 H          0.3526845867        0.4411647495       -2.1594157111
 H         -0.4266480582       -1.3056867769       -3.7198197637
 H         -2.7969083163       -2.0184779146       -3.6642044633
 H         -4.3304124282       -1.0649739733       -2.0125812462
 H         -6.4994785277       -0.0525003414       -0.3456738628
 H         -7.4880136016       -2.1893012653        0.3525730293
 H         -6.1067431425       -3.8871210259        1.4893486113
 H         -3.7212819509       -3.4151338652        1.9669932806
  99
  -149.232746010000       2.097917875854988E-002 !
 C         -0.9567744760       -4.5814614470       -1.7522891877
 C         -0.6373326652       -3.4274519710       -0.8582394025
 N          0.6378777695       -3.0946852476       -0.7397379387
 C          0.9300500197       -2.0544482468        0.0433662904
 N          2.2486979137       -1.6887629108        0.2250147853
 C          2.6358487174       -1.0209244240        1.3967664171
 C          2.1024953795       -1.3819478782        2.6322646615
 C          2.5157537613       -0.7416488072        3.7829510884
 C          3.4809087493        0.2500100853        3.7161350097
 C          4.0401853197        0.5855349875        2.4964299573
 C          3.6324824851       -0.0470366968        1.3307263695
 C          4.1746577407        0.3052112379       -0.0400063869
 C          3.1730991555        1.2007309370       -0.7652083135
 C          2.2704068907        1.9896200651       -0.0630945408
 C          1.3997110824        2.8318748275       -0.7329090278
 C          1.4219845798        2.9027353696       -2.1147552126
 C          2.3170151371        2.1175938024       -2.8228536860
 C          3.1828012740        1.2716153653       -2.1539329903
 C          5.5266713144        0.9844388098        0.0929960940
 C          6.5601001187        0.2819947555        0.7091178925
 C          7.8085690580        0.8523561416        0.8631304489
 C          8.0462838368        2.1381715900        0.4041682521
 C          7.0250751381        2.8440469695       -0.2045991271
 C          5.7719672628        2.2726510102       -0.3584781918
 C          4.3011109467       -0.9979496335       -0.8148605394
 C          5.3516576901       -1.2431602322       -1.6861010371
 C          5.4062292146       -2.4149737354       -2.4200685615
 C          4.4007463340       -3.3556223846       -2.2858154542
 C          3.3479867360       -3.1327970575       -1.4184034566
 C          3.2851676215       -1.9514132204       -0.6879763509
 C         -0.0767127530       -1.3096656039        0.6551516004
 C         -1.3796654382       -1.7863194695        0.5233466942
 N         -2.4507074012       -1.1649899322        1.1095949365
 C         -2.3437612739        0.0907884385        1.7377389396
 C         -1.5056071746        0.2927132000        2.8265074276
 C         -1.4264241876        1.5449133145        3.4087140597
 C         -2.1957648068        2.5864550653        2.9193869653
 C         -3.0625826511        2.3753692653        1.8598071174
 C         -3.1523366394        1.1274610216        1.2648646713
 C         -4.0583208919        0.8013490318        0.0923113253
 C         -5.1118049821        1.8732793250       -0.0793040754
 C         -5.1634932374        2.6938809907       -1.1963976577
 C         -6.1328217870        3.6783819026       -1.2994100289
 C         -7.0584498516        3.8573753655       -0.2873474699
 C         -7.0075880495        3.0489788169        0.8368044998
 C         -6.0403301969        2.0678186982        0.9406948080
 C         -3.2256624138        0.5709917551       -1.1700139759
 C         -1.8819812659        0.9080225820       -1.2479886620
 C         -1.1343831351        0.5659757979       -2.3623010162
 C         -1.7251190183       -0.0914576339       -3.4249866787
 C         -3.0755360156       -0.3935979983       -3.3743570049
 C         -3.8166037134       -0.0711352821       -2.2540890988
 C         -4.6649847677       -0.5649598054        0.3889150659
 C         -5.9853737952       -0.9076981623        0.1496647851
 C         -6.4133088934       -2.2117263592        0.3364146718
 C         -5.5217809199       -3.1849176262        0.7532628665
 C         -4.2014790930       -2.8572129566        1.0020040247
 C         -3.7752848375       -1.5511648269        0.8168422088
 N         -1.6480494598       -2.8569648587       -0.2325485785
 H         -0.1995392521       -4.6690184919       -2.5255811137
 H         -1.9406050592       -4.4411061886       -2.1899865285
 H         -0.9671555557       -5.5007844913       -1.1683206748
 H          1.3664532724       -2.1708810545        2.6811581170
 H          2.0906887303       -1.0234589940        4.7348520138
 H          3.8007046720        0.7588851940        4.6127263487
 H          4.7928518216        1.3582500937        2.4466316715
 H          2.2487572158        1.9560363759        1.0165493787
 H          0.7035658210        3.4374775122       -0.1703909104
 H          0.7434092009        3.5608651014       -2.6371179874
 H          2.3408100350        2.1630714300       -3.9020976742
 H          3.8792002894        0.6666519577       -2.7155796272
 H          6.3773325030       -0.7213889108        1.0673507904
 H          8.5991640858        0.2929687597        1.3416314554
 H          9.0221194464        2.5856136771        0.5223712569
 H          7.1995488346        3.8482112389       -0.5629184828
 H          4.9849742476        2.8407072363       -0.8315714225
 H          6.1327410204       -0.5055437544       -1.7997418956
 H          6.2306282004       -2.5869361686       -3.0958336327
 H          4.4382335199       -4.2746071245       -2.8515495753
 H          2.5606906045       -3.8577283301       -1.3072853444
 H          0.1525793684       -0.4013291782        1.1829352652
 H         -0.9245929847       -0.5287133643        3.2174501142
 H         -0.7647573423        1.7035363807        4.2470210799
 H         -2.1270732474        3.5665623679        3.3667878970
 H         -3.6624684921        3.1917297499        1.4865513343
 H         -4.4422775613        2.5683247584       -1.9904397437
 H         -6.1612456641        4.3092298294       -2.1759163744
 H         -7.8140729622        4.6245706764       -0.3703513102
 H         -7.7225116574        3.1849320141        1.6352386216
 H         -5.9970430281        1.4439440244        1.8225466628
 H         -1.4001474157        1.4305692684       -0.4341886422
 H         -0.0830630706        0.8097472865       -2.3903171983
 H         -1.1362707629       -0.3671739598       -4.2871466900
 H         -3.5505893009       -0.8972640068       -4.2035003216
 H         -4.8644115892       -0.3305618074       -2.2130354815
 H         -6.6821452195       -0.1591996803       -0.1985383247
 H         -7.4444016970       -2.4675912578        0.1429673954
 H         -5.8559427553       -4.2024325968        0.8897472133
 H         -3.4960262150       -3.6049727932        1.3243379943
