  103
  -158.593103503400       0.669685984833171      !
 C          8.1442384172        1.5505573471       -1.8328637485
 C          6.9369839359        1.6743836262       -1.1642451614
 C          6.3757549681        0.5845286259       -0.5281206557
 C          7.0200598150       -0.6527037858       -0.5551617128
 N          6.4522402402       -1.7590224653        0.0893342057
 C          7.2608176792       -2.6723019965        0.7708394343
 C          6.9324907380       -4.0283602581        0.7857089100
 C          7.7319468051       -4.9297198775        1.4604933468
 C          8.8701531798       -4.4997729518        2.1232214496
 C          9.2016473372       -3.1545769161        2.1097028771
 C          8.4052143073       -2.2436650638        1.4440382964
 C          5.0650183485       -1.9204619629        0.0721696508
 C          4.3373640483       -1.6150049011       -1.0789545949
 C          2.9646520246       -1.7265109471       -1.0862590330
 C          2.2676247041       -2.1302297474        0.0546625534
 C          0.8013004133       -2.1278140660        0.0616904519
 C          0.0731360298       -2.4932694300       -1.0717046388
 C         -1.2989468938       -2.3849707975       -1.0920919354
 C         -1.9921264100       -1.8919520973        0.0157889485
 C         -3.4316176134       -1.7517369931       -0.0995730139
 N         -4.1642131223       -2.5661962439       -0.8215294925
 C         -5.4407504369       -2.1238502564       -0.7064280689
 C         -6.6169368185       -2.6989058227       -1.2625489914
 C         -6.5592154231       -3.8696710479       -2.0257275019
 C         -7.7094126842       -4.4307983936       -2.5217961069
 C         -8.9356501624       -3.8254693651       -2.2550281614
 C         -9.0028996115       -2.6703409864       -1.5109162428
 C         -7.8494109458       -2.0611973937       -0.9943603197
 C         -7.8824222708       -0.8223173542       -0.2353601119
 C         -9.0783157141       -0.1203005677       -0.0307047849
 C         -9.1159383534        1.0769533677        0.6444644185
 C         -7.9412316336        1.6389214490        1.1333286105
 C         -6.7491045701        0.9796006302        0.9616941436
 C         -6.6930889012       -0.2577928667        0.3038430827
 C         -5.4857745881       -0.9834997482        0.0975161098
 N         -4.1865686103       -0.7643024355        0.4929105693
 C         -3.7114333891        0.2426673002        1.3618497505
 C         -4.1357529251        0.2450912803        2.6908257862
 C         -3.7062422338        1.2584025764        3.5320635589
 C         -2.8624035362        2.2446248045        3.0655901843
 C         -2.3928694149        2.2319427202        1.7432230865
 C         -1.5125531531        3.2846412435        1.2741372600
 C         -1.8128807043        4.6155735848        1.5942001892
 C         -1.0977303120        5.6629750711        1.0843221210
 C          0.0258780415        5.4379133444        0.2280284357
 C          0.7623346009        6.4892091063       -0.3130178311
 C          1.8687052006        6.2487246407       -1.1173486580
 C          2.2908006864        4.9421474954       -1.3805564911
 C          3.4361023963        4.6655311763       -2.1777289796
 C          3.8413267002        3.3645385546       -2.4071719867
 C          3.1520436577        2.3021188519       -1.8615271527
 C          1.9924029208        2.5243317966       -1.0649654291
 C          1.2744407074        1.4757816535       -0.4895722108
 C          0.1359192991        1.7163465929        0.2694977024
 C         -0.3401202435        3.0105238653        0.4753240699
 C          0.4069258344        4.0991154718       -0.0492712019
 C          1.5587540921        3.8555345196       -0.8333828748
 C         -2.8389695155        1.2094573329        0.8945474659
 C         -1.2758974308       -1.5816737081        1.1704954548
 C          0.0993758242       -1.7009391196        1.1889398149
 C          3.0046306242       -2.4665227946        1.1898879744
 C          4.3797880139       -2.3719361007        1.2008320215
 C          8.2339977443       -0.7729710144       -1.2311910526
 C          8.7885889460        0.3240624267       -1.8614852027
 H          8.5816886782        2.4044285713       -2.3274885617
 H          6.4291308437        2.6264929185       -1.1273032825
 H          5.4390953121        0.6883118069       -0.0000240533
 H          6.0517761993       -4.3671238016        0.2599456826
 H          7.4692005197       -5.9772908394        1.4605664278
 H          9.4936135751       -5.2075561015        2.6473454348
 H         10.0832866214       -2.8096754205        2.6294523472
 H          8.6582703820       -1.1935679717        1.4464491559
 H          4.8617178913       -1.2853363807       -1.9643079571
 H          2.4198592285       -1.4729607436       -1.9842633769
 H          0.5912051427       -2.8741506956       -1.9395097310
 H         -1.8644654972       -2.6651822310       -1.9668819298
 H         -5.5899852093       -4.3108242253       -2.1989433040
 H         -7.6704298700       -5.3358585495       -3.1096686391
 H         -9.8449221442       -4.2672730937       -2.6367225149
 H         -9.9749973601       -2.2406565088       -1.3278856772
 H        -10.0039329171       -0.5137153689       -0.4187791084
 H        -10.0572685318        1.5883021692        0.7824479952
 H         -7.9641756472        2.5915809885        1.6413981252
 H         -5.8395333800        1.4299656837        1.3250763441
 H         -4.8058566559       -0.5257646016        3.0405564759
 H         -4.0357449026        1.2722865702        4.5605047105
 H         -2.5236448214        3.0208127180        3.7351784126
 H         -2.6784506002        4.8138014837        2.2112174596
 H         -1.3785053349        6.6814644839        1.3076558241
 H          0.4653760424        7.5057649663       -0.0976525368
 H          2.4198912852        7.0770613714       -1.5384200457
 H          3.9864266608        5.4943670276       -2.5975432290
 H          4.7118565139        3.1769262590       -3.0206343578
 H          3.4781880356        1.2867400642       -2.0291430806
 H          1.6125301986        0.4611687072       -0.6310875699
 H         -0.3705702446        0.8787420567        0.7227441753
 H         -2.5401577182        1.1998326218       -0.1434671092
 H         -1.7904521653       -1.2501801021        2.0603537453
 H          0.6415815038       -1.4217776597        2.0806668596
 H          2.4922720147       -2.8120988530        2.0752973450
 H          4.9345654674       -2.6270216913        2.0918988544
 H          8.7327712092       -1.7306770550       -1.2613100946
 H          9.7272531487        0.2181137213       -2.3851473230
  103
  -158.592435606400       0.330314015166829      !
 C          8.4817687815       -2.4316642175       -3.7652770638
 C          7.2730504155       -1.7547012352       -3.7495464813
 C          6.6095026085       -1.5356248596       -2.5583752749
 C          7.1472290644       -2.0024527858       -1.3587839847
 N          6.4752940484       -1.7901122961       -0.1492605016
 C          7.2028793825       -1.4937080334        1.0086825352
 C          6.7976549447       -1.9963841031        2.2452641925
 C          7.5200560513       -1.7023067283        3.3850093366
 C          8.6561397250       -0.9125896626        3.3120152129
 C          9.0641909217       -0.4134171228        2.0857308163
 C          8.3450071637       -0.6958461629        0.9409555214
 C          5.0815721014       -1.8526920392       -0.1076398645
 C          4.3907731967       -2.7732604136       -0.8987996557
 C          3.0138417570       -2.8125727406       -0.8840248443
 C          2.2778037567       -1.9517932876       -0.0691556854
 C          0.8119634021       -1.9508578905       -0.0978589852
 C          0.1279778958       -2.1051549470       -1.3051575326
 C         -1.2455562756       -2.0222982846       -1.3534192925
 C         -1.9849053046       -1.7785771600       -0.1944951668
 C         -3.4263010158       -1.6590056821       -0.3213095744
 N         -4.1289542064       -2.3613695914       -1.1772122375
 C         -5.4184190490       -1.9746782933       -1.0084460863
 C         -6.5740887316       -2.4746296316       -1.6701024254
 C         -6.4789319472       -3.4952568438       -2.6220082605
 C         -7.6089894802       -3.9884653189       -3.2247059063
 C         -8.8530996272       -3.4668848414       -2.8758800454
 C         -8.9574166963       -2.4587678098       -1.9457570665
 C         -7.8252472191       -1.9203919965       -1.3157266823
 C         -7.8987106714       -0.8310530620       -0.3566057318
 C         -9.1145031628       -0.2053020284       -0.0480471395
 C         -9.1892433763        0.8546427925        0.8246235071
 C         -8.0344806139        1.3509580283        1.4205659065
 C         -6.8237679896        0.7622699492        1.1510729691
 C         -6.7296430619       -0.3374416784        0.2858662537
 C         -5.5013614080       -0.9842232569       -0.0280540972
 N         -4.2126567480       -0.7998872593        0.4132222454
 C         -3.7472787636        0.0714613953        1.4220358559
 C         -4.1453078637       -0.1364293338        2.7424412131
 C         -3.6873085950        0.7276183720        3.7239793277
 C         -2.8369522543        1.7647243980        3.4035206494
 C         -2.3998088418        1.9675885107        2.0842294650
 C         -1.5085740591        3.0674682117        1.7761581245
 C         -1.7474939706        4.3175528419        2.3664619788
 C         -1.0177727165        5.4259311777        2.0432227389
 C          0.0633498782        5.3471399974        1.1101384809
 C          0.8202953914        6.4647999827        0.7663902397
 C          1.8877481657        6.3627051753       -0.1152178227
 C          2.2459956137        5.1269137927       -0.6627494455
 C          3.3546027459        4.9861306622       -1.5420721707
 C          3.6963629123        3.7510545830       -2.0594011635
 C          2.9703318532        2.6246184556       -1.7360630381
 C          1.8474767530        2.7125265262       -0.8649878336
 C          1.1014100474        1.5913557402       -0.5026616758
 C          0.0220197373        1.6981077376        0.3659327581
 C         -0.3871096313        2.9313740614        0.8728341986
 C          0.3780805405        4.0835976945        0.5452339128
 C          1.4864345327        3.9750075376       -0.3273433739
 C         -2.8855677934        1.1023359069        1.0933550783
 C         -1.3113606039       -1.6799176848        1.0224395305
 C          0.0662769027       -1.7601840587        1.0649558935
 C          2.9747783479       -1.0537273474        0.7407294511
 C          4.3512553604       -0.9958056071        0.7176650746
 C          8.3638018129       -2.6844789081       -1.3801088188
 C          9.0233862285       -2.8915455114       -2.5758157057
 H          8.9982561277       -2.5991716534       -4.6980054070
 H          6.8471350042       -1.3868245226       -4.6713159795
 H          5.6737757112       -0.9963658295       -2.5460597125
 H          5.9187638278       -2.6218490234        2.3019046250
 H          7.1985337353       -2.1002171901        4.3361722361
 H          9.2195315477       -0.6878224524        4.2046816337
 H          9.9445728734        0.2086479881        2.0205670136
 H          8.6581790348       -0.2961584465       -0.0124512120
 H          4.9460785894       -3.4577262706       -1.5232642225
 H          2.4986105899       -3.5402276260       -1.4933091315
 H          0.6854091223       -2.2551950160       -2.2182205840
 H         -1.7743794287       -2.1270000535       -2.2877400885
 H         -5.4970422479       -3.8774611155       -2.8542518277
 H         -7.5409194393       -4.7773874292       -3.9592658093
 H         -9.7468171503       -3.8578953313       -3.3407846879
 H         -9.9420027681       -2.0894771417       -1.7058885457
 H        -10.0264374037       -0.5484786954       -0.5093603757
 H        -10.1448798540        1.3111283322        1.0369775514
 H         -8.0878284463        2.1982715108        2.0881106578
 H         -5.9289602282        1.1621517848        1.6005022578
 H         -4.8106502177       -0.9527280932        2.9802268842
 H         -3.9941816593        0.5793856445        4.7488533051
 H         -2.4669380757        2.4113552764        4.1847886343
 H         -2.5803089750        4.4132790981        3.0492819002
 H         -1.2538026140        6.3861394956        2.4773343832
 H          0.5708477208        7.4228022256        1.1999661931
 H          2.4577710924        7.2421608059       -0.3774075841
 H          3.9306614260        5.8642866523       -1.7925910930
 H          4.5465555262        3.6680839205       -2.7219064436
 H          3.2413849248        1.6565612243       -2.1305706627
 H          1.3719570652        0.6242552520       -0.8989153012
 H         -0.4889676082        0.7971373474        0.6655895474
 H         -2.6245462216        1.2642875276        0.0579549227
 H         -1.8623174547       -1.5503243057        1.9420882470
 H          0.5730608801       -1.6843155368        2.0158847213
 H          2.4282437848       -0.3602581463        1.3624093688
 H          4.8719014796       -0.2710397309        1.3260463171
 H          8.7818277650       -3.0537208079       -0.4550316375
 H          9.9628339201       -3.4242446396       -2.5795502251
