  103
       -159.30653306
 C          8.1442384172        1.5505573471       -1.8328637485
 C          6.9369839359        1.6743836262       -1.1642451614
 C          6.3757549681        0.5845286259       -0.5281206557
 C          7.0200598150       -0.6527037858       -0.5551617128
 N          6.4522402402       -1.7590224653        0.0893342057
 C          7.2608176792       -2.6723019965        0.7708394343
 C          6.9324907380       -4.0283602581        0.7857089100
 C          7.7319468051       -4.9297198775        1.4604933468
 C          8.8701531798       -4.4997729518        2.1232214496
 C          9.2016473372       -3.1545769161        2.1097028771
 C          8.4052143073       -2.2436650638        1.4440382964
 C          5.0650183485       -1.9204619629        0.0721696508
 C          4.3373640483       -1.6150049011       -1.0789545949
 C          2.9646520246       -1.7265109471       -1.0862590330
 C          2.2676247041       -2.1302297474        0.0546625534
 C          0.8013004133       -2.1278140660        0.0616904519
 C          0.0731360298       -2.4932694300       -1.0717046388
 C         -1.2989468938       -2.3849707975       -1.0920919354
 C         -1.9921264100       -1.8919520973        0.0157889485
 C         -3.4316176134       -1.7517369931       -0.0995730139
 N         -4.1642131223       -2.5661962439       -0.8215294925
 C         -5.4407504369       -2.1238502564       -0.7064280689
 C         -6.6169368185       -2.6989058227       -1.2625489914
 C         -6.5592154231       -3.8696710479       -2.0257275019
 C         -7.7094126842       -4.4307983936       -2.5217961069
 C         -8.9356501624       -3.8254693651       -2.2550281614
 C         -9.0028996115       -2.6703409864       -1.5109162428
 C         -7.8494109458       -2.0611973937       -0.9943603197
 C         -7.8824222708       -0.8223173542       -0.2353601119
 C         -9.0783157141       -0.1203005677       -0.0307047849
 C         -9.1159383534        1.0769533677        0.6444644185
 C         -7.9412316336        1.6389214490        1.1333286105
 C         -6.7491045701        0.9796006302        0.9616941436
 C         -6.6930889012       -0.2577928667        0.3038430827
 C         -5.4857745881       -0.9834997482        0.0975161098
 N         -4.1865686103       -0.7643024355        0.4929105693
 C         -3.7114333891        0.2426673002        1.3618497505
 C         -4.1357529251        0.2450912803        2.6908257862
 C         -3.7062422338        1.2584025764        3.5320635589
 C         -2.8624035362        2.2446248045        3.0655901843
 C         -2.3928694149        2.2319427202        1.7432230865
 C         -1.5125531531        3.2846412435        1.2741372600
 C         -1.8128807043        4.6155735848        1.5942001892
 C         -1.0977303120        5.6629750711        1.0843221210
 C          0.0258780415        5.4379133444        0.2280284357
 C          0.7623346009        6.4892091063       -0.3130178311
 C          1.8687052006        6.2487246407       -1.1173486580
 C          2.2908006864        4.9421474954       -1.3805564911
 C          3.4361023963        4.6655311763       -2.1777289796
 C          3.8413267002        3.3645385546       -2.4071719867
 C          3.1520436577        2.3021188519       -1.8615271527
 C          1.9924029208        2.5243317966       -1.0649654291
 C          1.2744407074        1.4757816535       -0.4895722108
 C          0.1359192991        1.7163465929        0.2694977024
 C         -0.3401202435        3.0105238653        0.4753240699
 C          0.4069258344        4.0991154718       -0.0492712019
 C          1.5587540921        3.8555345196       -0.8333828748
 C         -2.8389695155        1.2094573329        0.8945474659
 C         -1.2758974308       -1.5816737081        1.1704954548
 C          0.0993758242       -1.7009391196        1.1889398149
 C          3.0046306242       -2.4665227946        1.1898879744
 C          4.3797880139       -2.3719361007        1.2008320215
 C          8.2339977443       -0.7729710144       -1.2311910526
 C          8.7885889460        0.3240624267       -1.8614852027
 H          8.5816886782        2.4044285713       -2.3274885617
 H          6.4291308437        2.6264929185       -1.1273032825
 H          5.4390953121        0.6883118069       -0.0000240533
 H          6.0517761993       -4.3671238016        0.2599456826
 H          7.4692005197       -5.9772908394        1.4605664278
 H          9.4936135751       -5.2075561015        2.6473454348
 H         10.0832866214       -2.8096754205        2.6294523472
 H          8.6582703820       -1.1935679717        1.4464491559
 H          4.8617178913       -1.2853363807       -1.9643079571
 H          2.4198592285       -1.4729607436       -1.9842633769
 H          0.5912051427       -2.8741506956       -1.9395097310
 H         -1.8644654972       -2.6651822310       -1.9668819298
 H         -5.5899852093       -4.3108242253       -2.1989433040
 H         -7.6704298700       -5.3358585495       -3.1096686391
 H         -9.8449221442       -4.2672730937       -2.6367225149
 H         -9.9749973601       -2.2406565088       -1.3278856772
 H        -10.0039329171       -0.5137153689       -0.4187791084
 H        -10.0572685318        1.5883021692        0.7824479952
 H         -7.9641756472        2.5915809885        1.6413981252
 H         -5.8395333800        1.4299656837        1.3250763441
 H         -4.8058566559       -0.5257646016        3.0405564759
 H         -4.0357449026        1.2722865702        4.5605047105
 H         -2.5236448214        3.0208127180        3.7351784126
 H         -2.6784506002        4.8138014837        2.2112174596
 H         -1.3785053349        6.6814644839        1.3076558241
 H          0.4653760424        7.5057649663       -0.0976525368
 H          2.4198912852        7.0770613714       -1.5384200457
 H          3.9864266608        5.4943670276       -2.5975432290
 H          4.7118565139        3.1769262590       -3.0206343578
 H          3.4781880356        1.2867400642       -2.0291430806
 H          1.6125301986        0.4611687072       -0.6310875699
 H         -0.3705702446        0.8787420567        0.7227441753
 H         -2.5401577182        1.1998326218       -0.1434671092
 H         -1.7904521653       -1.2501801021        2.0603537453
 H          0.6415815038       -1.4217776597        2.0806668596
 H          2.4922720147       -2.8120988530        2.0752973450
 H          4.9345654674       -2.6270216913        2.0918988544
 H          8.7327712092       -1.7306770550       -1.2613100946
 H          9.7272531487        0.2181137213       -2.3851473230
