40
 energy: -69.266398185856 gnorm: 0.000012261741 xtb: 6.7.1 (edcfbbe)
C            4.49937674564438        2.41588892382705       -0.00002099914803
C            3.09174238394680        2.39519123483426       -0.00001565952087
C            2.45908559961739        1.17618280906923       -0.00001072605961
C            3.24609064888642       -0.00001444316905       -0.00001125829256
C            2.45907429082468       -1.17620405417233       -0.00000590783627
C            3.09171863945716       -2.39521892110063       -0.00000545458481
C            4.49935274402602       -2.41593087835435       -0.00001039549886
C            5.26176930927990       -1.27151266068093       -0.00001572850435
C            4.64330178716851       -0.00002167787297       -0.00001635395287
C            5.26178199970890        1.27146316254002       -0.00002144937500
C            1.07866447011912       -0.71939573552230       -0.00000179289795
N           -0.03095970892544       -1.41793926333830        0.00000322676341
C           -1.17480043942779       -0.70568474023089        0.00000575896623
C           -2.42353225572971       -1.42407912960360        0.00001080057751
C           -2.46423399922336       -2.82459877456931        0.00001353452124
C           -3.68524362579803       -3.45895995747793        0.00001861542244
C           -4.83838877381039       -2.67004844048938        0.00002072689305
N           -4.82423266359017       -1.35841389344368        0.00001772392777
C           -3.64893166011797       -0.72499816173534        0.00001317030386
C           -3.64892533459594        0.72503136963992        0.00001114607898
N           -4.82422102966627        1.35845688736963        0.00001409583099
C           -4.83836633673067        2.67009154854515        0.00001256346482
C           -3.68521462777894        3.45899340928082        0.00000798875749
C           -2.46421024495638        2.82462205300116        0.00000487883921
C           -2.42351994198165        1.42410206960063        0.00000645704836
C           -1.17479408567491        0.70569713874678        0.00000346137861
N           -0.03094681505216        1.41794133143720       -0.00000184128696
C            1.07867116925809        0.71938778778291       -0.00000460682022
H            4.99410927695044        3.37635864655292       -0.00002486502376
H            2.53326572913648        3.31871695917354       -0.00001553507251
H            2.53323239965779       -3.31873884607698       -0.00000133264061
H            4.99407565368094       -3.37640555684175       -0.00001020402135
H            6.33989494717503       -1.33781145802991       -0.00001973663508
H            6.33990828845224        1.33775127213822       -0.00002561714139
H           -1.53281625215890       -3.37029087092723        0.00001163062275
H           -3.75753553225299       -4.53520096240144        0.00002057027323
H           -5.82199009694299       -3.12242514863632        0.00002361395576
H           -5.82196393389933        3.12247634890976        0.00001519920812
H           -3.75749764969004        4.53523501001698        0.00000700602759
H           -1.53278807496709        3.37030661219973        0.00000129543939
