  40
        -69.23448777
 C          4.7212482564        2.4147480011        0.0333903643
 C          3.3136583624        2.3935367903        0.0193172997
 C          2.6824303325        1.1753913819        0.0018242238
 C          3.4698674560        0.0000524868       -0.0026128744
 C          2.6827005323       -1.1753694868       -0.0180877991
 C          3.3145092298       -2.3933048763       -0.0248392554
 C          4.7221000641       -2.4144321710       -0.0141825434
 C          5.4847089744       -1.2710044068        0.0036303801
 C          4.8663297957        0.0001567659        0.0102867056
 C          5.4841963428        1.2714407309        0.0294481087
 C          1.3009952929       -0.7188582084       -0.0191398539
 N          0.1933155255       -1.4182068307       -0.0197343002
 C         -0.9492005761       -0.7059988079       -0.0136447515
 C         -2.1983133306       -1.4231407901       -0.0027763487
 C         -2.2369834783       -2.8230284910        0.0039143853
 C         -3.4576007040       -3.4570192150        0.0205719934
 C         -4.6114498428       -2.6688353506        0.0295819617
 N         -4.5988775004       -1.3583306419        0.0221053137
 C         -3.4244318505       -0.7250497709        0.0061918988
 C         -3.4244910263        0.7248190805       -0.0008216904
 N         -4.5991223681        1.3581688724        0.0034129398
 C         -4.6116558542        2.6685554327       -0.0023018858
 C         -3.4580160307        3.4570114369       -0.0129219289
 C         -2.2373257251        2.8228697319       -0.0170433062
 C         -2.1984735396        1.4230076061       -0.0105928383
 C         -0.9493197961        0.7059554178       -0.0127689651
 N          0.1932681807        1.4180926392       -0.0096504279
 C          1.3009361682        0.7187549029       -0.0101805025
 H          5.2164782824        3.3751407171        0.0487075253
 H          2.7553296354        3.3168238991        0.0235321287
 H          2.7563335407       -3.3167194246       -0.0374619108
 H          5.2173993244       -3.3748675306       -0.0198063655
 H          6.5631273092       -1.3372158811        0.0127085463
 H          6.5626211465        1.3379242551        0.0413840545
 H         -1.3048730245       -3.3670213874       -0.0023330027
 H         -3.5302509647       -4.5337100616        0.0278421499
 H         -5.5930923805       -3.1249990396        0.0435411335
 H         -5.5935178931        3.1247952307        0.0028126480
 H         -3.5305592593        4.5336377341       -0.0170443428
 H         -1.3052752456        3.3669697103       -0.0253811741
