  72
        -98.53752367
 C          3.1213326191        3.3391223783        1.4278100759
 C          1.9324845404        2.4549999418        1.2331516034
 C          1.8074549607        1.2596180373        1.9322501511
 C          0.7221218780        0.4249902515        1.7531162692
 C          0.6010540790       -0.7864352058        2.6260040003
 C         -0.2748340981        0.7409872992        0.7866836847
 B         -1.2981552991       -0.3306805495        0.3111362366
 C         -0.8480556083       -1.7297766150       -0.0943305736
 C         -1.7371509758       -2.8368881750       -0.0500020131
 C         -1.3338427406       -4.1314746076       -0.2202210189
 C          0.0131486695       -4.4231869339       -0.4889984633
 C          0.9144059410       -3.3829353154       -0.5869418021
 C          0.5175808846       -2.0593459183       -0.4369962440
 N          1.5006421298       -1.0758123606       -0.5801558662
 C          2.7149302345       -1.0689020235        0.0740008186
 C          3.1993845660       -1.9319249021        1.0485973476
 C          4.4545426576       -1.6811529519        1.5703183159
 C          5.2197985510       -0.6006686155        1.1352516109
 C          4.7454882247        0.2621765596        0.1637275001
 C          3.4869290721        0.0340413020       -0.3695092745
 C          2.7010898475        0.7006158337       -1.3703266260
 C          2.9271233372        1.7960137773       -2.1892089441
 C          1.9629448107        2.1362246676       -3.1199620213
 C          0.7995275872        1.3837818830       -3.2548431685
 C          0.5515134286        0.2909519164       -2.4451490363
 C          1.4946237545       -0.0294851412       -1.4819382513
 C         -2.8462514260        0.0208448168        0.2575174473
 C         -3.4631634700        0.5908259092        1.3869847327
 C         -2.6980724362        0.8291946947        2.6544512851
 C         -4.8135862775        0.8963870944        1.3708676148
 C         -5.6030277428        0.6585019631        0.2538895797
 C         -7.0628678354        1.0003269862        0.2654540396
 C         -4.9953947411        0.1010084661       -0.8563824419
 C         -3.6417567421       -0.2159873322       -0.8735568088
 C         -3.0929507367       -0.7371728719       -2.1717110607
 C         -0.2148745294        2.0322654412        0.1959129265
 C         -1.3206565776        2.5086154920       -0.6924005287
 C          0.8821379284        2.8394763233        0.3973478445
 H          3.3322349800        3.9028402728        0.5213034019
 H          3.9960848774        2.7503345770        1.6962532445
 H          2.9351952980        4.0538865518        2.2316276348
 H          2.5805108837        0.9799084678        2.6355664038
 H          0.2629748888       -1.6556162524        2.0671667186
 H          1.5526277035       -1.0119060590        3.1029731491
 H         -0.1337158296       -0.5981998815        3.4102500244
 H         -2.7747300943       -2.6287296232        0.1698279776
 H         -2.0484926238       -4.9383509867       -0.1456493114
 H          0.3331352539       -5.4404330500       -0.6506418768
 H          1.9447860572       -3.5828412375       -0.8497601916
 H          2.6145711367       -2.7706798256        1.3928972835
 H          4.8519160126       -2.3370094151        2.3308445802
 H          6.1972465788       -0.4390628400        1.5654512750
 H          5.3400168006        1.0978462944       -0.1736006316
 H          3.8418742624        2.3633075841       -2.1055238948
 H          2.1193987585        2.9872850535       -3.7662908642
 H          0.0790779212        1.6567423503       -4.0116356844
 H         -0.3405686341       -0.3008242903       -2.5615330180
 H         -2.3497435867       -0.1195563156        3.0610325802
 H         -3.3245788831        1.3156062888        3.3990625853
 H         -1.8259858722        1.4539653764        2.4703599548
 H         -5.2700528094        1.3173693684        2.2569919957
 H         -7.2029489464        2.0662369250        0.4447820361
 H         -7.5737387674        0.4595989649        1.0619236428
 H         -7.5297015098        0.7440397924       -0.6825149935
 H         -5.5819202695       -0.0805334157       -1.7473409683
 H         -2.2104479677       -1.3486239959       -2.0160944597
 H         -3.8413330409       -1.3356998523       -2.6874595229
 H         -2.8300648316        0.0980523734       -2.8243632715
 H         -1.0350495470        3.4241987920       -1.2054232595
 H         -1.5674951003        1.7498163687       -1.4302202021
 H         -2.2206659840        2.7013254490       -0.1089703003
 H          0.9414241580        3.7923123272       -0.1109340462
