100
 energy: -154.443468819364 gnorm: 0.000104560003 xtb: 6.7.1 (edcfbbe)
C           -6.32585487707339        4.15201543128429        2.88381705151655
C           -5.47752624158560        4.03403217476098        1.65411851359157
C           -5.01801784559513        5.17262935187388        1.00068358021867
C           -4.24058216099794        5.05773951440896       -0.13425897076618
C           -3.88929625773984        3.82291084313118       -0.66527099149601
C           -3.07774111399242        3.76224807802530       -1.92378429246206
C           -4.33103299622354        2.67436821933031        0.00188956316113
N           -4.01190117242013        1.38431236062638       -0.45637167248994
C           -2.72866692316970        1.03465849083799       -0.90240981130373
C           -2.63084718651459        0.29721832115923       -2.08326773617236
C           -1.41385489898257       -0.10526563192587       -2.57751951465608
C           -0.23241395271435        0.21617690179694       -1.90585189465682
C            1.04153529342152       -0.15928719906162       -2.41100114422703
C            2.17978436898139        0.12424806027624       -1.73575779765224
C            2.14327340808824        0.80580468090094       -0.48568691619901
C            3.30091459791495        1.05926183244232        0.27690539333653
N            4.53843775152010        0.49823035461347       -0.06705151557741
C            5.67894850917475        1.32289791301700       -0.01149414188982
C            5.63126232128664        2.54168187067781       -0.68481876295425
C            6.70630878055476        3.41249899049897       -0.67969713757094
C            6.64243779296626        4.72681819285569       -1.39634368372543
C            7.85168817705691        3.03980914759134        0.01519734423548
C            7.89658273594699        1.84210096375300        0.70185201052153
C            6.81824610179200        0.96675340678118        0.71806609481792
C            6.88505244002995       -0.29339932103730        1.52559959620236
C            4.64462188814121       -0.84581287215587       -0.38538220617184
C            5.67372537306011       -1.33105854769221       -1.19349116875637
C            5.78465237074946       -2.67855939548266       -1.51324390547957
C            4.87142730854556       -3.60804585794426       -1.05809861512536
C            3.83008609272959       -3.15415606135610       -0.25503824347437
C            3.72969389919031       -1.79514807175351        0.08188806407215
O            2.65793184081694       -1.55405986456843        0.89412587975650
C            2.04804495811115       -2.75159939827562        1.08331321219956
C            0.91490157017547       -2.98496543276265        1.84199129052279
C            0.46238582283560       -4.29035535977092        1.91796978814397
C            1.11489444111046       -5.32546562165017        1.25215704512505
C            2.24277907807707       -5.08971638070716        0.49076473689524
C            2.71916517758683       -3.78822304459472        0.40534977276678
C            3.22649450460348        1.86290852431551        1.41239521469644
C            2.01698012748947        2.34020176251822        1.86173537367654
C            0.83083629388943        2.01701680486704        1.19813081592438
C           -0.44174670557889        2.40341104255813        1.69789278918662
C           -1.58497121685297        2.08408753322406        1.04664222038421
C           -1.56222886713546        1.37317540156161       -0.18815828159164
C           -0.30369847742053        0.95677508990001       -0.70079053025698
C            0.89111044902733        1.26145953502713        0.00176472262875
C           -4.99341539357293        0.39704260668149       -0.46328219235440
C           -6.34284922136012        0.68592916569899       -0.66696828021906
C           -7.31617509453484       -0.30481464688672       -0.66062372517723
C           -6.99592639500837       -1.63447686551794       -0.46989036499583
C           -5.65693889637074       -1.95759682780396       -0.27998427248509
C           -4.67668992016631       -0.95100381885807       -0.26870875948956
O           -3.42884213120015       -1.46482109245153       -0.06109911946047
C           -3.58432911658239       -2.80895060120416        0.04948131580318
C           -2.57602707199547       -3.73660970763780        0.23917745610807
C           -2.95001952392379       -5.06543688060785        0.32385572053243
C           -4.28367135045192       -5.45427944767358        0.22063907170430
C           -5.28767468865591       -4.52657602282813        0.02251552227389
C           -4.93655288733158       -3.18602226593287       -0.06705730958022
C           -5.12150825092603        2.79874130119980        1.14645736056629
H           -7.22528235976062        4.72779671923572        2.66941571976419
H           -6.61926084633791        3.17172576353249        3.25056649852132
H           -5.78049688746658        4.67014763658726        3.67199921712799
H           -5.27730264577279        6.14955094267378        1.38134440709956
H           -3.90368604853337        5.95281835673226       -0.63770939402449
H           -2.02942571854185        3.55886449463830       -1.70228526902167
H           -3.43826602929090        2.97677099958643       -2.58474902882713
H           -3.13466585859577        4.71328035267802       -2.44884640625343
H           -3.53844823619056        0.05016636735158       -2.61738469454602
H           -1.36282929960487       -0.66903745553507       -3.49790479944572
H            1.08155543355669       -0.67678038050917       -3.35927824543039
H            3.13538517160921       -0.15265975316171       -2.15529025093255
H            4.72792693585306        2.79793973533703       -1.22084302464054
H            7.54348387116183        4.88674896457454       -1.98573447820827
H            6.56637888024217        5.54194193611773       -0.67650774417076
H            5.77833750908586        4.76980030587232       -2.05430392996346
H            8.70766367387883        3.69860373664548        0.02707543705569
H            8.78700510246933        1.58088160866762        1.25611658422403
H            7.18125011101458       -1.14026539790647        0.90493918485632
H            7.61426374424057       -0.18619257185651        2.32571476276218
H            5.91577226215152       -0.52720640947021        1.96233416320762
H            6.39466941377084       -0.62790516701365       -1.58390136645951
H            6.60369882533776       -2.99586893832400       -2.14157938592116
H            4.95651117668315       -4.65226481506741       -1.31245519368717
H            0.41239000148479       -2.17537775193115        2.34701842707167
H           -0.41670592843349       -4.51076518500907        2.50510808603885
H            0.72986846380217       -6.33094171147941        1.33714760000595
H            2.74645482208179       -5.89335863794923       -0.02440244881377
H            4.13448465446289        2.07986632900958        1.95718608578101
H            1.97290434117926        2.94130057069209        2.75856589069831
H           -0.47921913333290        2.94944475550507        2.63011132351589
H           -2.53420267519924        2.36815976234873        1.47093907331228
H           -6.63088939196140        1.71310426496153       -0.83262099591708
H           -8.34547313039904       -0.02021156210577       -0.82008668011622
H           -7.75354703953833       -2.40160842136243       -0.47030744163792
H           -1.54551073296789       -3.42790575844798        0.31242055395740
H           -2.18825049000128       -5.81645318268670        0.46957332386371
H           -4.53365991129099       -6.50236891219823        0.29333833488605
H           -6.31971973496656       -4.83062987224388       -0.06334050486227
H           -5.45129291168718        1.89811681404659        1.64582074479481
