100
 energy: -154.381848582060 gnorm: 0.000056727628 xtb: 6.7.1 (edcfbbe)
C           -6.33448816595829        4.08968500040929        2.92811460461971
C           -5.49134237778273        3.98546868872686        1.69390568310262
C           -5.04244471909745        5.13150107030444        1.04531582320158
C           -4.26797008357794        5.03048538769475       -0.09350860011587
C           -3.90534934727412        3.80273038029084       -0.63249525864174
C           -3.09672964447594        3.75741393859904       -1.89296426875313
C           -4.33848654229536        2.64666184602936        0.02943377863083
N           -4.01440805139708        1.36221305234215       -0.43848375024707
C           -2.74494253390375        1.02560674466223       -0.90293050899159
C           -2.65106928275906        0.25739107494683       -2.06969744692033
C           -1.44621757802287       -0.13069448459694       -2.57991380877654
C           -0.23187325445159        0.21600511979911       -1.91624902612894
C            1.00945698426761       -0.15187273522274       -2.42694196694799
C            2.18241979188158        0.15124861802305       -1.75177552655569
C            2.15130259065272        0.82187408395486       -0.52903878303277
C            3.33967431847660        1.10654325325897        0.23357481722974
N            4.55911604371109        0.51813416719576       -0.08718618675992
C            5.71985303732055        1.31202923192692       -0.02170812709957
C            5.70699165142219        2.53433663901238       -0.69256602419952
C            6.80351272644885        3.37643839092776       -0.67906064396152
C            6.78359996858088        4.68990763154724       -1.39933643683040
C            7.93400638914635        2.97400584057284        0.02559404709941
C            7.94387282268940        1.77455432625839        0.71050028799400
C            6.84521250899279        0.92467901277795        0.71499353462779
C            6.87501043907356       -0.33758668016088        1.52136944150054
C            4.64423460832890       -0.82662949869089       -0.40855377774295
C            5.66017395909148       -1.32518130898502       -1.22808257642557
C            5.74548836231443       -2.67225351291556       -1.55257590253155
C            4.82198128531811       -3.58887149976412       -1.08830339715206
C            3.79602895153004       -3.12210269973441       -0.27190674809614
C            3.71651024075226       -1.76151739081236        0.06520085723060
O            2.66308515316506       -1.50649548819321        0.89150036666354
C            2.03932044370674       -2.69516562661370        1.09141672873225
C            0.91455059327047       -2.91260405317933        1.86706588686461
C            0.44630222803263       -4.21184858794474        1.95101475307237
C            1.07533080104846       -5.25637414076872        1.27652767697945
C            2.19446965814602       -5.03656121469661        0.49812057741476
C            2.68676340326071       -3.74126640268449        0.40431816051335
C            3.27359691278618        1.97064797381895        1.33107015831469
C            2.07630495170446        2.44933162302851        1.78326711441767
C            0.85375061701330        2.07676372825279        1.14596332690061
C           -0.38472802857848        2.45705300409583        1.65212742826220
C           -1.56429986930187        2.10566275757259        1.01033406956199
C           -1.54911208965909        1.39897113810722       -0.19290350203610
C           -0.29589385065016        0.97186850249604       -0.71666328859625
C            0.90402841401458        1.28727089332589       -0.03246106307907
C           -5.00150513169193        0.38201981575379       -0.45857705984348
C           -6.34898703692202        0.68160003403840       -0.67776149829917
C           -7.32734156834592       -0.30240229880848       -0.68490680159094
C           -7.01758605133758       -1.63492257539902       -0.48865440049304
C           -5.68243963469409       -1.96820012625597       -0.28223397206247
C           -4.69392898066878       -0.96963185833326       -0.26486411394748
O           -3.45520249124732       -1.48997104272556       -0.04107386390129
C           -3.62053720606083       -2.83293635566508        0.07508228154863
C           -2.62115381553941       -3.76627968054079        0.28117862892515
C           -3.00583368473995       -5.09206800561897        0.36854300767212
C           -4.34122466669113       -5.47179659304158        0.25225724622166
C           -5.33632574617077       -4.53844000218673        0.03760419290702
C           -4.97442084224584       -3.20060081290733       -0.05541076657569
C           -5.12873488424254        2.75650845970897        1.17624360310175
H           -7.22181889585217        4.68980935447639        2.73156612303989
H           -6.64681395079129        3.10666085504204        3.27100737124015
H           -5.77578300722307        4.57558828403499        3.72748128740276
H           -5.30732713881287        6.10398920318013        1.43330780080880
H           -3.94103480029206        5.93169395451142       -0.59229988134432
H           -2.04512475213366        3.57306912589846       -1.67228178020613
H           -3.44274599134251        2.96592881596556       -2.55444157234138
H           -3.17160297696955        4.70801961301417       -2.41658888114392
H           -3.56512905056411       -0.00290510131822       -2.58777104533220
H           -1.39254982410650       -0.69444969668375       -3.49888807511857
H            1.05643830978881       -0.69701670634965       -3.35885546308559
H            3.12536659327957       -0.14414321862651       -2.18725098282414
H            4.81378110244864        2.81187941321525       -1.23457025882561
H            7.64070425322016        4.77285024882630       -2.06590056108645
H            6.83789679180174        5.51077773837656       -0.68464988378825
H            5.87319522993057        4.80022546224189       -1.98253119116519
H            8.80529558758315        3.61207928506783        0.04601172956608
H            8.82264977702831        1.49107650752709        1.27219086390552
H            7.15463033033741       -1.19070392165214        0.90162184913704
H            7.60178409867656       -0.24916487116492        2.32593667486794
H            5.89789447993823       -0.54744965980060        1.95262735779718
H            6.38781838649965       -0.63153799608847       -1.62299101874704
H            6.55204455130084       -3.00203506696779       -2.19044336164699
H            4.88860512647573       -4.63355314430722       -1.34609552900057
H            0.43026367327593       -2.09568494592634        2.37776227192055
H           -0.42626607934888       -4.42093080549487        2.55188709957305
H            0.67806421457211       -6.25643851474782        1.36839552280303
H            2.67959640022738       -5.84722373328457       -0.02378415429344
H            4.18956386065413        2.21385446293269        1.85220020638423
H            2.03158018930334        3.08091179322453        2.65750788339810
H           -0.42836115897954        3.03786624659389        2.56239153277609
H           -2.49980490420080        2.40112638182798        1.45651511891204
H           -6.62698878169947        1.71101352900010       -0.84647448246285
H           -8.35299311323868       -0.01224235009943       -0.85706220817470
H           -7.78041044586011       -2.39670619283914       -0.49748956145358
H           -1.58948164242961       -3.46402361578618        0.36365842625271
H           -2.25155850008793       -5.84803255237472        0.52676988270032
H           -4.59954575236218       -6.51767173370048        0.32773595542839
H           -6.36942412507091       -4.83576190542965       -0.05837843323164
H           -5.44860047508764        1.84957780728326        1.67044795058796
