  58
        -96.32247502
 C         -7.7232867935        1.5241878551        1.5669602105
 C         -6.6060229344        2.2646563469        1.9393024105
 C         -5.3398112127        1.9436619971        1.4832997828
 C         -5.2115230977        0.8614267877        0.6257157904
 C         -6.3349936980        0.0767538925        0.2837555659
 C         -7.5967075103        0.4184522188        0.7491586366
 C         -5.8503474208       -1.0146513579       -0.5179404359
 C         -6.4784443145       -2.0850553871       -1.1395631473
 C         -5.7048335097       -2.9808598589       -1.8512398248
 C         -4.3267339473       -2.8123441176       -1.9513981095
 C         -3.6811553829       -1.7521605610       -1.3411538096
 C         -4.4522391986       -0.8576435226       -0.6174655421
 N         -4.0741209195        0.3019298903        0.0542022205
 C         -2.7968559431        0.8228602662        0.0885167288
 C         -2.5514700902        2.2075349664        0.0731919833
 N         -1.3278016919        2.6880612346        0.1493541916
 C         -0.3237834598        1.8268306230        0.2180635645
 C         -0.5468397750        0.4511275689        0.1455520193
 C          0.5575442749       -0.5092259651        0.1457282688
 C          0.3473223000       -1.8863834151        0.2240656402
 N          1.3604716748       -2.7377166959        0.1601699412
 C          2.5802654781       -2.2474503312        0.0796526441
 C          2.8124954834       -0.8605185142        0.0840731560
 N          4.0814249501       -0.3198074689        0.0400694762
 C          5.2308093709       -0.8462976952        0.6181824801
 C          5.3852319398       -1.9227984544        1.4785564043
 C          6.6572255827       -2.2054092757        1.9435272612
 C          7.7548135914       -1.4333314974        1.5769590222
 C          7.6016540024       -0.3346759992        0.7541956546
 C          6.3338063278       -0.0318552104        0.2787413163
 C          5.8238802118        1.0414890550       -0.5314658531
 C          6.4258114992        2.1242043698       -1.1576317560
 C          5.6322124408        2.9933226659       -1.8800970888
 C          4.2599027097        2.7868748232       -1.9858984161
 C          3.6403597468        1.7139461496       -1.3711602742
 C          4.4312951319        0.8457525201       -0.6368927790
 N          1.7913314720       -0.0114317605        0.0835252748
 N         -1.7845979105       -0.0375550434        0.0886285713
 H         -8.6953252617        1.8096345714        1.9392725903
 H         -6.7257559007        3.1058323923        2.6055502323
 H         -4.4843582918        2.5114128269        1.8152180615
 H         -8.4559704972       -0.1776500572        0.4830699260
 H         -7.5481553906       -2.2087436317       -1.0661758755
 H         -6.1720535478       -3.8228165861       -2.3398062237
 H         -3.7468017694       -3.5260747315       -2.5171962808
 H         -2.6133334413       -1.6275354440       -1.4203179934
 H         -3.3468670398        2.9287201279       -0.0450857154
 H          0.6718899137        2.2327181918        0.3073519258
 H         -0.6439394768       -2.3028404844        0.3145434095
 H          3.3817080252       -2.9629152983       -0.0324859235
 H          4.5449688674       -2.5155366217        1.8048234840
 H          6.7975462062       -3.0415848635        2.6120073918
 H          8.7322654371       -1.6885475365        1.9573678509
 H          8.4450148373        0.2853613669        0.4915898914
 H          7.4912967865        2.2776712350       -1.0796147724
 H          6.0789829071        3.8435078260       -2.3730499833
 H          3.6635513209        3.4800200485       -2.5601921422
 H          2.5770601705        1.5597860674       -1.4563743760
  58
        -96.32223061
 C         -7.5556510672        0.2560047117        2.6125770244
 C         -6.4080699563        0.7422364764        3.2308593522
 C         -5.1906291780        0.7762156181        2.5742178048
 C         -5.1439446706        0.3213225938        1.2649532582
 C         -6.2955143957       -0.2161923464        0.6482013080
 C         -7.5072022993       -0.2390948667        1.3241223051
 C         -5.8910364577       -0.6837289016       -0.6504206521
 C         -6.5765576776       -1.2842679395       -1.6974545573
 C         -5.8765837359       -1.6133657573       -2.8415710700
 C         -4.5156212339       -1.3417773564       -2.9493652808
 C         -3.8140042994       -0.7434174731       -1.9186560605
 C         -4.5093545262       -0.4246514298       -0.7639956594
 N         -4.0667434472        0.2103753398        0.3930641333
 C         -2.7844590013        0.6769878936        0.6019400168
 C         -2.5220497602        1.8665193437        1.3041249932
 N         -1.2903452024        2.2895992446        1.5007279075
 C         -0.2965861070        1.5652471224        1.0078301368
 C         -0.5431486580        0.4072340929        0.2693339552
 C          0.5403633648       -0.3776282689       -0.3262195309
 C          0.2959052615       -1.5224608639       -1.0855826595
 N          1.2913748409       -2.2431606756       -1.5807191587
 C          2.5231154527       -1.8304119308       -1.3638107628
 C          2.7841008165       -0.6548263629       -0.6378127930
 N          4.0662683991       -0.2012176558       -0.4020377420
 C          4.4971105493        0.4052306758        0.7747486794
 C          3.7855530819        0.7138379032        1.9222352050
 C          4.4772034143        1.2827811593        2.9762402318
 C          5.8437936383        1.5355570548        2.8980147478
 C          6.5592551090        1.2176212271        1.7603379545
 C          5.8839754630        0.6470789026        0.6901042806
 C          6.3043169048        0.2006787789       -0.6109318412
 C          7.5268490909        0.2232236013       -1.2669409414
 C          7.5896565048       -0.2431835834       -2.5654393704
 C          6.4463299959       -0.7009854809       -3.2126546187
 C          5.2183613697       -0.7347054795       -2.5760564792
 C          5.1565137095       -0.3086354458       -1.2578261199
 N          1.7851685956        0.0442304609       -0.1104910590
 N         -1.7876822904       -0.0250705568        0.0740068344
 H         -8.4882563317        0.2509218397        3.1564012005
 H         -6.4647850503        1.0965510870        4.2491735455
 H         -4.3082473554        1.1259496878        3.0871966702
 H         -8.3880427786       -0.6455684608        0.8510619240
 H         -7.6338996796       -1.4849608836       -1.6147633507
 H         -6.3890675518       -2.0843179844       -3.6670121480
 H         -3.9947371000       -1.6035184901       -3.8583528852
 H         -2.7605071256       -0.5335444612       -2.0080648634
 H         -3.3143364351        2.5022340306        1.6708668537
 H          0.7068570411        1.9236274641        1.1776862534
 H         -0.7071927941       -1.8731039311       -1.2726784107
 H          3.3158743932       -2.4636640471       -1.7337125667
 H          2.7273186583        0.5196013627        1.9884401928
 H          3.9434424635        1.5372618124        3.8797830909
 H          6.3483256582        1.9832754515        3.7413072943
 H          7.6207636586        1.4036851788        1.7003479450
 H          8.4049903310        0.6077018401       -0.7710744494
 H          8.5305953933       -0.2368189430       -3.0944896773
 H          6.5146741589       -1.0314310103       -4.2383030402
 H          4.3397334216       -1.0608852303       -3.1104293837
  58
        -96.32218741
 C         -7.7712733890        1.8922775465       -0.6996572594
 C         -6.6805835106        2.7559192527       -0.7148014127
 C         -5.4031472675        2.3142431085       -0.4191291114
 C         -5.2363822256        0.9772265347       -0.0911914556
 C         -6.3325660417        0.0866554827       -0.1175505451
 C         -7.6060156433        0.5511023963       -0.4140376932
 C         -5.8103990215       -1.2234890508        0.1649348287
 C         -6.4006125060       -2.4743363004        0.2824264070
 C         -5.5957041460       -3.5592676900        0.5691122766
 C         -4.2238084043       -3.4039480755        0.7461061947
 C         -3.6160440392       -2.1665738984        0.6351747350
 C         -4.4178760887       -1.0782185915        0.3343258116
 N         -4.0795602719        0.2662220853        0.2053926209
 C         -2.8109990284        0.7817901862        0.3790698600
 C         -2.5765383901        2.0328116151        0.9761700446
 N         -1.3542439681        2.4967605150        1.1367718036
 C         -0.3422145072        1.7476505583        0.7241096551
 C         -0.5575363905        0.4902838363        0.1589720773
 C          0.5429693353       -0.3733723013       -0.2737094718
 C          0.3127306649       -1.6058010176       -0.8864739034
 N          1.3157213495       -2.3534505390       -1.3224290803
 C          2.5430575165       -1.9190348911       -1.1237165679
 C          2.7920777162       -0.7061546749       -0.4574801416
 N          4.0710775878       -0.2452778375       -0.2200346081
 C          5.1919102424       -1.0187300477        0.0599222601
 C          5.2981848711       -2.3774879887        0.3151701425
 C          6.5504593299       -2.8874803900        0.6080786453
 C          7.6751629564       -2.0705402389        0.6608898033
 C          7.5690897313       -0.7096681782        0.4522047855
 C          6.3214579677       -0.1768468816        0.1607635793
 C          5.8570979450        1.1678159819       -0.0515465757
 C          6.4978801499        2.3989513233       -0.0768968593
 C          5.7426039936        3.5312491538       -0.3111176660
 C          4.3705290726        3.4423908340       -0.5283262891
 C          3.7130981703        2.2256911076       -0.5099927301
 C          4.4644937222        1.0893784497       -0.2600163078
 N          1.7832586736        0.0641864959       -0.0647260936
 N         -1.7927093024        0.0210925468       -0.0064197866
 H         -8.7533839738        2.2757864503       -0.9315988913
 H         -6.8305183752        3.7940838586       -0.9710190658
 H         -4.5683201872        2.9956810842       -0.4716350500
 H         -8.4447533970       -0.1280211512       -0.4279068121
 H         -7.4658844211       -2.5906067821        0.1532947234
 H         -6.0329550531       -4.5422707831        0.6605241212
 H         -3.6186880415       -4.2685219249        0.9745869795
 H         -2.5532443743       -2.0521197178        0.7742676352
 H         -3.3783962889        2.6423987525        1.3658704187
 H          0.6521751352        2.1412387649        0.8671057116
 H         -0.6872295934       -1.9761921569       -1.0509423544
 H          3.3397895339       -2.5199343033       -1.5365400930
 H          4.4360938978       -3.0260062519        0.3139315376
 H          6.6532293238       -3.9437234879        0.8063479224
 H          8.6363080237       -2.5070266595        0.8866694508
 H          8.4332830687       -0.0673461780        0.5235974873
 H          7.5634476918        2.4638103897        0.0823393857
 H          6.2195584937        4.4998238995       -0.3290792906
 H          3.8051135221        4.3434918415       -0.7136665754
 H          2.6507990219        2.1617324359       -0.6810172187
  58
        -96.32194542
 C         -5.9184174978        2.5939530689        1.0160227769
 C         -4.5322197284        2.6581977885        0.9093086187
 C         -3.7911687556        1.5830139453        0.4533984402
 C         -4.4736153206        0.4284894046        0.1067683854
 C         -5.8788159385        0.3577932807        0.2011859422
 C         -6.6036618311        1.4488483829        0.6604472020
 C         -6.2592986413       -0.9555244842       -0.2450949299
 C         -7.4831167149       -1.6031143160       -0.3338680133
 C         -7.5074352640       -2.9155790254       -0.7632448939
 C         -6.3274810669       -3.5834588157       -1.0743405254
 C         -5.0970287803       -2.9555018818       -0.9950748376
 C         -5.0689063011       -1.6244129638       -0.6070846721
 N         -3.9894185630       -0.7704235993       -0.4119316614
 C         -2.6690823813       -1.0120850158       -0.7322117677
 C         -2.2851089767       -1.7826659113       -1.8439765416
 N         -1.0160034154       -1.9818049665       -2.1339580995
 C         -0.1006478630       -1.4237489875       -1.3552328714
 C         -0.4656659111       -0.6262450339       -0.2707658180
 C          0.5189077036        0.0502204493        0.5765713852
 C          0.1480833327        0.6919367510        1.7593773577
 N          1.0500060005        1.2681300719        2.5399936690
 C          2.3061177700        1.2584482178        2.1437589631
 C          2.6863893087        0.6639438980        0.9280182509
 N          3.9928566177        0.6761029793        0.4818118271
 C          4.6200084741       -0.3596819996       -0.2034001378
 C          4.1245903060       -1.5971056377       -0.5789460226
 C          4.9854671975       -2.4681656840       -1.2214365092
 C          6.3090479959       -2.1234732445       -1.4805424878
 C          6.8110071113       -0.8962858423       -1.0940175965
 C          5.9632191077       -0.0065966410       -0.4486319387
 C          6.1468654757        1.3181939250        0.0804264515
 C          7.2277635707        2.1883356738        0.0935897613
 C          7.0606323680        3.4432327406        0.6455549640
 C          5.8273400188        3.8378016783        1.1542929078
 C          4.7376070476        2.9853997700        1.1533176477
 C          4.9098815832        1.7090716461        0.6391996370
 N          1.7882841666        0.0386049728        0.1741553596
 N         -1.7483192828       -0.4345688916        0.0314770846
 H         -6.4616410929        3.4534085803        1.3794983565
 H         -4.0216523510        3.5673825080        1.1897723785
 H         -2.7177042683        1.6393120867        0.3739627118
 H         -7.6792687710        1.3983033872        0.7345656864
 H         -8.3927452958       -1.0895601200       -0.0624168547
 H         -8.4485764470       -3.4384230486       -0.8427846088
 H         -6.3694508106       -4.6186647515       -1.3784715809
 H         -4.1938309872       -3.5057188937       -1.2078896940
 H         -3.0065334471       -2.2020293439       -2.5293517683
 H          0.9333721444       -1.5920531564       -1.6130763781
 H         -0.8789257242        0.7151619739        2.0897606187
 H          3.0285872447        1.6929315642        2.8188720711
 H          3.1010005940       -1.8688615321       -0.3773438292
 H          4.6218218717       -3.4372154171       -1.5292712392
 H          6.9498373072       -2.8293411149       -1.9876335115
 H          7.8396009985       -0.6306147255       -1.2848193612
 H          8.1743498382        1.8887455437       -0.3295264113
 H          7.8885606844        4.1357144797        0.6684834442
 H          5.7131175110        4.8345482176        1.5532993576
 H          3.7827320424        3.3264474024        1.5219502679
  58
        -96.32129656
 C         -2.0386564083        3.6297397990        0.0717635812
 C         -1.1544926744        2.6728441421        0.5613737047
 C         -1.4537395401        1.3228876175        0.5209067237
 C         -2.6678889828        0.9498996362       -0.0310315231
 C         -3.5783314392        1.9119457396       -0.5143113373
 C         -3.2572595545        3.2616008081       -0.4645341956
 C         -4.7311455709        1.1932404826       -0.9878609986
 C         -5.9118043199        1.5979494047       -1.5938332769
 C         -6.8199107323        0.6335016280       -1.9851333578
 C         -6.5447180922       -0.7176195310       -1.8016987726
 C         -5.3745272288       -1.1425860066       -1.1977575677
 C         -4.4787719548       -0.1782565395       -0.7611623884
 N         -3.2326336414       -0.3181258673       -0.1614336213
 C         -2.6477942259       -1.4849593240        0.2823636135
 C         -3.3874757406       -2.5509481030        0.8252740946
 N         -2.7915732352       -3.6395521451        1.2646551895
 C         -1.4702561773       -3.7106540236        1.1835647719
 C         -0.7210551787       -2.6561968895        0.6605688860
 C          0.7453656387       -2.6669176376        0.5803281915
 C          1.5068156322       -3.8360728022        0.5769671101
 N          2.8282168291       -3.7942947024        0.4786298828
 C          3.4120922852       -2.6173942902        0.3945169225
 C          2.6593834041       -1.4292461732        0.4037426289
 N          3.2320979951       -0.1810109795        0.2829481053
 C          4.4719341501        0.2238004464        0.7633459219
 C          5.3667634727       -0.4336249587        1.5940078591
 C          6.5290897095        0.2271228971        1.9506435507
 C          6.7972512063        1.5181583358        1.5077274173
 C          5.8896094903        2.1958532996        0.7171600223
 C          4.7165634826        1.5523868922        0.3498051395
 C          3.5652931717        1.9715345792       -0.4043113237
 C          3.2389929153        3.1512594105       -1.0592233819
 C          2.0235227578        3.2287533315       -1.7107892493
 C          1.1475717550        2.1472296906       -1.7215457670
 C          1.4522408496        0.9627086863       -1.0753355307
 C          2.6632062870        0.8878419384       -0.4078625283
 N          1.3355575685       -1.4783853540        0.4907373576
 N         -1.3236284333       -1.5564604201        0.2176530052
 H         -1.7661235906        4.6736835306        0.1158991668
 H         -0.2093747658        2.9884615715        0.9769535835
 H         -0.7593826300        0.5869371282        0.8911092798
 H         -3.9495154646        4.0021008586       -0.8354307413
 H         -6.1074174244        2.6459932915       -1.7615367050
 H         -7.7468182179        0.9258861521       -2.4550688624
 H         -7.2561077982       -1.4544882602       -2.1435085204
 H         -5.1692001031       -2.1971934105       -1.0997131845
 H         -4.4593451058       -2.5084533891        0.9478442216
 H         -1.0209788647       -4.6111562226        1.5748794377
 H          1.0675305782       -4.8214514179        0.6202284357
 H          4.4851366713       -2.6217624370        0.2732395350
 H          5.1659494905       -1.4209029951        1.9798599169
 H          7.2398164378       -0.2711130623        2.5929972128
 H          7.7183699295        1.9981751721        1.8022615701
 H          6.0799212615        3.2084951566        0.3960839634
 H          3.9249929291        3.9847894195       -1.0582313218
 H          1.7472836069        4.1385188031       -2.2227088659
 H          0.2045869909        2.2345976893       -2.2398227111
 H          0.7643418651        0.1335426384       -1.0778876198
  58
        -96.32004151
 C         -6.1509991542        3.1479759209       -0.3938777197
 C         -5.8116588185        2.8762465736        0.9275845212
 C         -4.8647528026        1.9203837859        1.2504080653
 C         -4.2642606500        1.2222003428        0.2137223624
 C         -4.5720576422        1.5254515350       -1.1312130076
 C         -5.5265325816        2.4862726675       -1.4329544598
 C         -3.7177562593        0.7058963099       -1.9481075209
 C         -3.5741584701        0.5613211669       -3.3212791578
 C         -2.6405890991       -0.3392824555       -3.7957067506
 C         -1.8691486429       -1.0969179472       -2.9189012750
 C         -1.9986506829       -0.9702021592       -1.5476207466
 C         -2.9183238593       -0.0523544747       -1.0678722806
 N         -3.2728220128        0.2479642812        0.2447168081
 C         -2.7117267084       -0.3248994375        1.3669580503
 C         -3.4468176932       -0.5855568951        2.5369760796
 N         -2.8657481809       -1.0801072370        3.6098785753
 C         -1.5719041687       -1.3603639254        3.5522271297
 C         -0.8535737926       -1.2010821475        2.3669281516
 C          0.5575808712       -1.5813571208        2.2240395233
 C          1.1382800281       -2.6393600449        2.9220331374
 N          2.3931042052       -3.0006174495        2.6905076498
 C          3.0934903026       -2.3090315927        1.8165236997
 C          2.5412282054       -1.1972404883        1.1525343131
 N          3.2421203368       -0.4405490540        0.2404522513
 C          4.6204681906       -0.2570654833        0.1841959455
 C          5.6032741017       -0.5578235025        1.1153130690
 C          6.9119866358       -0.2238026270        0.8132898368
 C          7.2451219604        0.4093841129       -0.3792022222
 C          6.2658743967        0.7572706594       -1.2892047225
 C          4.9474085356        0.4344512756       -1.0034474943
 C          3.7080986383        0.7026857753       -1.6830893839
 C          3.4058367558        1.3387437426       -2.8791082546
 C          2.0797156557        1.4503889732       -3.2493229751
 C          1.0679836615        0.9412039270       -2.4407671072
 C          1.3473067606        0.3028140982       -1.2453330609
 C          2.6766661716        0.1827051719       -0.8745437257
 N          1.2697868056       -0.8714338043        1.3556562083
 N         -1.4333366183       -0.6747002590        1.2922937167
 H         -6.8988978470        3.8972436071       -0.6050842188
 H         -6.2922633478        3.4273680084        1.7219332290
 H         -4.5945283082        1.7532304259        2.2813153504
 H         -5.7654634211        2.7139751351       -2.4605063504
 H         -4.1825882385        1.1410102470       -3.9986901177
 H         -2.5072040423       -0.4631311047       -4.8600943153
 H         -1.1503960957       -1.7977130979       -3.3166124060
 H         -1.3991645805       -1.5607835008       -0.8746424813
 H         -4.5141205477       -0.4314411872        2.5949045300
 H         -1.1195046944       -1.7227608455        4.4633698160
 H          0.5932683225       -3.2371034914        3.6375247093
 H          4.0881676152       -2.6732467573        1.6087004857
 H          5.3695375043       -1.0100913877        2.0662094213
 H          7.6894671764       -0.4541252265        1.5262896707
 H          8.2781546171        0.6489372456       -0.5814784586
 H          6.5139512539        1.2806996616       -2.1998117237
 H          4.1936640369        1.7353564735       -3.5014581393
 H          1.8213907094        1.9434242206       -4.1746997149
 H          0.0380625662        1.0464423949       -2.7482764598
 H          0.5571471175       -0.0710102451       -0.6166136788
