  58
  -95.9885959518000       0.369828730720557      !
 C         -7.7232867935        1.5241878551        1.5669602105
 C         -6.6060229344        2.2646563469        1.9393024105
 C         -5.3398112127        1.9436619971        1.4832997828
 C         -5.2115230977        0.8614267877        0.6257157904
 C         -6.3349936980        0.0767538925        0.2837555659
 C         -7.5967075103        0.4184522188        0.7491586366
 C         -5.8503474208       -1.0146513579       -0.5179404359
 C         -6.4784443145       -2.0850553871       -1.1395631473
 C         -5.7048335097       -2.9808598589       -1.8512398248
 C         -4.3267339473       -2.8123441176       -1.9513981095
 C         -3.6811553829       -1.7521605610       -1.3411538096
 C         -4.4522391986       -0.8576435226       -0.6174655421
 N         -4.0741209195        0.3019298903        0.0542022205
 C         -2.7968559431        0.8228602662        0.0885167288
 C         -2.5514700902        2.2075349664        0.0731919833
 N         -1.3278016919        2.6880612346        0.1493541916
 C         -0.3237834598        1.8268306230        0.2180635645
 C         -0.5468397750        0.4511275689        0.1455520193
 C          0.5575442749       -0.5092259651        0.1457282688
 C          0.3473223000       -1.8863834151        0.2240656402
 N          1.3604716748       -2.7377166959        0.1601699412
 C          2.5802654781       -2.2474503312        0.0796526441
 C          2.8124954834       -0.8605185142        0.0840731560
 N          4.0814249501       -0.3198074689        0.0400694762
 C          5.2308093709       -0.8462976952        0.6181824801
 C          5.3852319398       -1.9227984544        1.4785564043
 C          6.6572255827       -2.2054092757        1.9435272612
 C          7.7548135914       -1.4333314974        1.5769590222
 C          7.6016540024       -0.3346759992        0.7541956546
 C          6.3338063278       -0.0318552104        0.2787413163
 C          5.8238802118        1.0414890550       -0.5314658531
 C          6.4258114992        2.1242043698       -1.1576317560
 C          5.6322124408        2.9933226659       -1.8800970888
 C          4.2599027097        2.7868748232       -1.9858984161
 C          3.6403597468        1.7139461496       -1.3711602742
 C          4.4312951319        0.8457525201       -0.6368927790
 N          1.7913314720       -0.0114317605        0.0835252748
 N         -1.7845979105       -0.0375550434        0.0886285713
 H         -8.6953252617        1.8096345714        1.9392725903
 H         -6.7257559007        3.1058323923        2.6055502323
 H         -4.4843582918        2.5114128269        1.8152180615
 H         -8.4559704972       -0.1776500572        0.4830699260
 H         -7.5481553906       -2.2087436317       -1.0661758755
 H         -6.1720535478       -3.8228165861       -2.3398062237
 H         -3.7468017694       -3.5260747315       -2.5171962808
 H         -2.6133334413       -1.6275354440       -1.4203179934
 H         -3.3468670398        2.9287201279       -0.0450857154
 H          0.6718899137        2.2327181918        0.3073519258
 H         -0.6439394768       -2.3028404844        0.3145434095
 H          3.3817080252       -2.9629152983       -0.0324859235
 H          4.5449688674       -2.5155366217        1.8048234840
 H          6.7975462062       -3.0415848635        2.6120073918
 H          8.7322654371       -1.6885475365        1.9573678509
 H          8.4450148373        0.2853613669        0.4915898914
 H          7.4912967865        2.2776712350       -1.0796147724
 H          6.0789829071        3.8435078260       -2.3730499833
 H          3.6635513209        3.4800200485       -2.5601921422
 H          2.5770601705        1.5597860674       -1.4563743760
  58
  -95.9882860536000       0.266428877526733      !
 C         -7.7712733890        1.8922775465       -0.6996572594
 C         -6.6805835106        2.7559192527       -0.7148014127
 C         -5.4031472675        2.3142431085       -0.4191291114
 C         -5.2363822256        0.9772265347       -0.0911914556
 C         -6.3325660417        0.0866554827       -0.1175505451
 C         -7.6060156433        0.5511023963       -0.4140376932
 C         -5.8103990215       -1.2234890508        0.1649348287
 C         -6.4006125060       -2.4743363004        0.2824264070
 C         -5.5957041460       -3.5592676900        0.5691122766
 C         -4.2238084043       -3.4039480755        0.7461061947
 C         -3.6160440392       -2.1665738984        0.6351747350
 C         -4.4178760887       -1.0782185915        0.3343258116
 N         -4.0795602719        0.2662220853        0.2053926209
 C         -2.8109990284        0.7817901862        0.3790698600
 C         -2.5765383901        2.0328116151        0.9761700446
 N         -1.3542439681        2.4967605150        1.1367718036
 C         -0.3422145072        1.7476505583        0.7241096551
 C         -0.5575363905        0.4902838363        0.1589720773
 C          0.5429693353       -0.3733723013       -0.2737094718
 C          0.3127306649       -1.6058010176       -0.8864739034
 N          1.3157213495       -2.3534505390       -1.3224290803
 C          2.5430575165       -1.9190348911       -1.1237165679
 C          2.7920777162       -0.7061546749       -0.4574801416
 N          4.0710775878       -0.2452778375       -0.2200346081
 C          5.1919102424       -1.0187300477        0.0599222601
 C          5.2981848711       -2.3774879887        0.3151701425
 C          6.5504593299       -2.8874803900        0.6080786453
 C          7.6751629564       -2.0705402389        0.6608898033
 C          7.5690897313       -0.7096681782        0.4522047855
 C          6.3214579677       -0.1768468816        0.1607635793
 C          5.8570979450        1.1678159819       -0.0515465757
 C          6.4978801499        2.3989513233       -0.0768968593
 C          5.7426039936        3.5312491538       -0.3111176660
 C          4.3705290726        3.4423908340       -0.5283262891
 C          3.7130981703        2.2256911076       -0.5099927301
 C          4.4644937222        1.0893784497       -0.2600163078
 N          1.7832586736        0.0641864959       -0.0647260936
 N         -1.7927093024        0.0210925468       -0.0064197866
 H         -8.7533839738        2.2757864503       -0.9315988913
 H         -6.8305183752        3.7940838586       -0.9710190658
 H         -4.5683201872        2.9956810842       -0.4716350500
 H         -8.4447533970       -0.1280211512       -0.4279068121
 H         -7.4658844211       -2.5906067821        0.1532947234
 H         -6.0329550531       -4.5422707831        0.6605241212
 H         -3.6186880415       -4.2685219249        0.9745869795
 H         -2.5532443743       -2.0521197178        0.7742676352
 H         -3.3783962889        2.6423987525        1.3658704187
 H          0.6521751352        2.1412387649        0.8671057116
 H         -0.6872295934       -1.9761921569       -1.0509423544
 H          3.3397895339       -2.5199343033       -1.5365400930
 H          4.4360938978       -3.0260062519        0.3139315376
 H          6.6532293238       -3.9437234879        0.8063479224
 H          8.6363080237       -2.5070266595        0.8866694508
 H          8.4332830687       -0.0673461780        0.5235974873
 H          7.5634476918        2.4638103897        0.0823393857
 H          6.2195584937        4.4998238995       -0.3290792906
 H          3.8051135221        4.3434918415       -0.7136665754
 H          2.6507990219        2.1617324359       -0.6810172187
  58
  -95.9880032917000       0.197529936082671      !
 C         -7.5556510672        0.2560047117        2.6125770244
 C         -6.4080699563        0.7422364764        3.2308593522
 C         -5.1906291780        0.7762156181        2.5742178048
 C         -5.1439446706        0.3213225938        1.2649532582
 C         -6.2955143957       -0.2161923464        0.6482013080
 C         -7.5072022993       -0.2390948667        1.3241223051
 C         -5.8910364577       -0.6837289016       -0.6504206521
 C         -6.5765576776       -1.2842679395       -1.6974545573
 C         -5.8765837359       -1.6133657573       -2.8415710700
 C         -4.5156212339       -1.3417773564       -2.9493652808
 C         -3.8140042994       -0.7434174731       -1.9186560605
 C         -4.5093545262       -0.4246514298       -0.7639956594
 N         -4.0667434472        0.2103753398        0.3930641333
 C         -2.7844590013        0.6769878936        0.6019400168
 C         -2.5220497602        1.8665193437        1.3041249932
 N         -1.2903452024        2.2895992446        1.5007279075
 C         -0.2965861070        1.5652471224        1.0078301368
 C         -0.5431486580        0.4072340929        0.2693339552
 C          0.5403633648       -0.3776282689       -0.3262195309
 C          0.2959052615       -1.5224608639       -1.0855826595
 N          1.2913748409       -2.2431606756       -1.5807191587
 C          2.5231154527       -1.8304119308       -1.3638107628
 C          2.7841008165       -0.6548263629       -0.6378127930
 N          4.0662683991       -0.2012176558       -0.4020377420
 C          4.4971105493        0.4052306758        0.7747486794
 C          3.7855530819        0.7138379032        1.9222352050
 C          4.4772034143        1.2827811593        2.9762402318
 C          5.8437936383        1.5355570548        2.8980147478
 C          6.5592551090        1.2176212271        1.7603379545
 C          5.8839754630        0.6470789026        0.6901042806
 C          6.3043169048        0.2006787789       -0.6109318412
 C          7.5268490909        0.2232236013       -1.2669409414
 C          7.5896565048       -0.2431835834       -2.5654393704
 C          6.4463299959       -0.7009854809       -3.2126546187
 C          5.2183613697       -0.7347054795       -2.5760564792
 C          5.1565137095       -0.3086354458       -1.2578261199
 N          1.7851685956        0.0442304609       -0.1104910590
 N         -1.7876822904       -0.0250705568        0.0740068344
 H         -8.4882563317        0.2509218397        3.1564012005
 H         -6.4647850503        1.0965510869        4.2491735455
 H         -4.3082473554        1.1259496878        3.0871966702
 H         -8.3880427786       -0.6455684608        0.8510619240
 H         -7.6338996796       -1.4849608836       -1.6147633507
 H         -6.3890675518       -2.0843179844       -3.6670121480
 H         -3.9947371000       -1.6035184901       -3.8583528852
 H         -2.7605071256       -0.5335444612       -2.0080648634
 H         -3.3143364351        2.5022340306        1.6708668537
 H          0.7068570411        1.9236274641        1.1776862534
 H         -0.7071927941       -1.8731039311       -1.2726784107
 H          3.3158743932       -2.4636640471       -1.7337125667
 H          2.7273186583        0.5196013627        1.9884401928
 H          3.9434424635        1.5372618124        3.8797830909
 H          6.3483256582        1.9832754515        3.7413072943
 H          7.6207636586        1.4036851788        1.7003479450
 H          8.4049903310        0.6077018401       -0.7710744494
 H          8.5305953933       -0.2368189430       -3.0944896773
 H          6.5146741589       -1.0314310103       -4.2383030402
 H          4.3397334216       -1.0608852303       -3.1104293837
  58
  -95.9878401617000       0.166212455670039      !
 C         -5.9184174978        2.5939530689        1.0160227769
 C         -4.5322197284        2.6581977885        0.9093086187
 C         -3.7911687556        1.5830139453        0.4533984402
 C         -4.4736153206        0.4284894046        0.1067683854
 C         -5.8788159385        0.3577932807        0.2011859422
 C         -6.6036618311        1.4488483829        0.6604472020
 C         -6.2592986413       -0.9555244842       -0.2450949299
 C         -7.4831167149       -1.6031143160       -0.3338680133
 C         -7.5074352640       -2.9155790254       -0.7632448939
 C         -6.3274810669       -3.5834588157       -1.0743405254
 C         -5.0970287803       -2.9555018818       -0.9950748376
 C         -5.0689063011       -1.6244129638       -0.6070846721
 N         -3.9894185630       -0.7704235993       -0.4119316614
 C         -2.6690823813       -1.0120850158       -0.7322117677
 C         -2.2851089767       -1.7826659113       -1.8439765416
 N         -1.0160034154       -1.9818049665       -2.1339580995
 C         -0.1006478630       -1.4237489875       -1.3552328714
 C         -0.4656659111       -0.6262450339       -0.2707658180
 C          0.5189077036        0.0502204493        0.5765713852
 C          0.1480833327        0.6919367510        1.7593773577
 N          1.0500060005        1.2681300719        2.5399936690
 C          2.3061177700        1.2584482178        2.1437589631
 C          2.6863893087        0.6639438980        0.9280182509
 N          3.9928566177        0.6761029793        0.4818118271
 C          4.6200084741       -0.3596819996       -0.2034001378
 C          4.1245903060       -1.5971056377       -0.5789460226
 C          4.9854671975       -2.4681656840       -1.2214365092
 C          6.3090479959       -2.1234732445       -1.4805424878
 C          6.8110071113       -0.8962858423       -1.0940175965
 C          5.9632191077       -0.0065966410       -0.4486319387
 C          6.1468654757        1.3181939250        0.0804264515
 C          7.2277635707        2.1883356738        0.0935897613
 C          7.0606323680        3.4432327406        0.6455549640
 C          5.8273400188        3.8378016783        1.1542929078
 C          4.7376070476        2.9853997700        1.1533176477
 C          4.9098815832        1.7090716461        0.6391996370
 N          1.7882841666        0.0386049728        0.1741553596
 N         -1.7483192828       -0.4345688916        0.0314770846
 H         -6.4616410929        3.4534085803        1.3794983565
 H         -4.0216523510        3.5673825080        1.1897723785
 H         -2.7177042683        1.6393120867        0.3739627118
 H         -7.6792687710        1.3983033872        0.7345656864
 H         -8.3927452958       -1.0895601200       -0.0624168547
 H         -8.4485764470       -3.4384230486       -0.8427846088
 H         -6.3694508106       -4.6186647515       -1.3784715809
 H         -4.1938309872       -3.5057188937       -1.2078896940
 H         -3.0065334471       -2.2020293439       -2.5293517683
 H          0.9333721444       -1.5920531564       -1.6130763781
 H         -0.8789257242        0.7151619739        2.0897606187
 H          3.0285872447        1.6929315642        2.8188720711
 H          3.1010005940       -1.8688615321       -0.3773438292
 H          4.6218218717       -3.4372154171       -1.5292712392
 H          6.9498373072       -2.8293411149       -1.9876335115
 H          7.8396009985       -0.6306147255       -1.2848193612
 H          8.1743498382        1.8887455437       -0.3295264113
 H          7.8885606844        4.1357144797        0.6684834442
 H          5.7131175110        4.8345482176        1.5532993576
 H          3.7827320424        3.3264474024        1.5219502679
