  125
       -182.71813489
 C         -0.8434001661        5.3865757075        1.0216544130
 C         -0.1749255561        5.1712643356       -0.3436623166
 C         -0.0833923013        6.5274831048       -1.0482967132
 C          1.2525456919        4.6391128367       -0.1488100299
 C         -0.9770253847        4.1476665994       -1.1316917103
 C         -1.5459111665        4.4245311113       -2.3715212829
 C         -2.2629480292        3.4719086356       -3.0783367059
 C         -2.4149774698        2.2074083102       -2.5387340349
 C         -1.8488359649        1.9155889058       -1.2892969917
 C         -1.1442941378        2.8690449275       -0.5939792805
 C         -2.1389873411        0.4831293347       -0.8895242363
 C         -2.9449235428        0.4789513603        0.3968014828
 C         -4.3173165209        0.4748862116        0.3716946023
 C         -5.0864985523        0.4585218300        1.5802364813
 C         -6.5074819773        0.3864280598        1.5510181505
 C         -7.3149039400        0.0038878788        2.6641876353
 C         -8.6801949281        0.0195331751        2.5867606785
 C         -9.2916805763        0.3709253719        1.3752853443
 N         -8.5486523797        0.7667992804        0.3495358842
 C         -7.2545370014        0.7913434052        0.4046406020
 C         -4.3736252468        0.4788724882        2.7934391119
 C         -2.9948878183        0.4935355575        2.8305528939
 C         -2.2848739999        0.4148766835        4.0967282506
 C         -1.0633796997       -0.2679904689        4.2331685729
 C         -0.4322387141       -0.3075962782        5.4592460465
 C         -1.0342225377        0.3220108328        6.5417260600
 N         -2.1769066954        0.9828197042        6.4177170255
 C         -2.7767441802        1.0369850478        5.2548360995
 C         -2.2668284025        0.5287014453        1.6146429590
 C         -0.8916674711       -0.3627382799       -0.7561868791
 C          0.2868755892        0.0096756944       -1.4068988830
 C          1.4491586242       -0.7283322493       -1.2892779827
 C          1.4263653601       -1.8623723113       -0.4926475014
 C          0.2257020829       -2.2901928344        0.1194977784
 C         -0.9322169739       -1.5393855287       -0.0176629100
 C          0.5314377692       -3.5155385712        0.8027482459
 C         -0.2169479046       -4.3836289029        1.5865923893
 C          0.4087174167       -5.4888764692        2.1305600162
 C          1.7642703582       -5.7245846029        1.9154032727
 C          2.5311719808       -4.8720704802        1.1410053632
 C          1.9035348607       -3.7747282837        0.5720154050
 N          2.4313455549       -2.7652925463       -0.2118495185
 C          3.7708796838       -2.6377324285       -0.5975531777
 C          4.4371496824       -3.7034353177       -1.1998421391
 C          5.7633230802       -3.5621948638       -1.5649034053
 C          6.4345967779       -2.3730811424       -1.3457059218
 C          5.7746648109       -1.3062651444       -0.7363967286
 N          6.4520487997       -0.1083537611       -0.4834062234
 C          7.6816735758        0.0055456968        0.1391448892
 C          8.5030026013       -0.9817937439        0.6636102782
 C          9.6844303129       -0.5880468386        1.2633214546
 C         10.0426799984        0.7550052589        1.3522489749
 C          9.2163293814        1.7440680050        0.8570255229
 C          8.0239809552        1.3728803562        0.2500649372
 C          6.9434303304        2.1146327469       -0.3370919460
 C          6.7110178389        3.4696235159       -0.5331398027
 C          5.5475667206        3.8573751246       -1.1677312903
 C          4.6327368601        2.9117442456       -1.6237827136
 C          4.8437856433        1.5587376517       -1.4404464922
 C          5.9939740341        1.1631094703       -0.7746398932
 C          4.4430723666       -1.4433821801       -0.3621297362
 C         -2.9351216517       -0.0040585519       -2.0843139799
 C         -3.4867861042       -1.2457615991       -2.2907080297
 C         -4.2214899561       -1.5004884439       -3.4509006329
 C         -4.8600399406       -2.8691182505       -3.6248172182
 C         -3.7699857747       -3.9486736500       -3.5649970517
 C         -5.8706118224       -3.0832049372       -2.4879693082
 C         -5.6008043619       -3.0156694241       -4.9566594617
 C         -4.3573854784       -0.4785566785       -4.3866108775
 C         -3.7967924390        0.7738346967       -4.1918337984
 C         -3.0839023022        1.0187493244       -3.0320640610
 H         -1.8635626899        5.7406488042        0.8877803053
 H         -0.8772731998        4.4669460906        1.5991722621
 H         -0.2924510748        6.1287849516        1.5956181606
 H          0.4112186440        6.4368480724       -2.0128104825
 H         -1.0702953875        6.9610773508       -1.1921411379
 H          0.4987513218        7.2139628584       -0.4366494763
 H          1.8482976844        5.3552600068        0.4131364912
 H          1.7278704582        4.4795796066       -1.1143939000
 H          1.2569634540        3.6962939431        0.3911022333
 H         -1.4356394094        5.4020807963       -2.8119115293
 H         -2.6915656676        3.7177698042       -4.0388567020
 H         -0.7192768484        2.6186694846        0.3657191324
 H         -4.8302411386        0.4617174178       -0.5762932273
 H         -6.8380919732       -0.3502983801        3.5656526809
 H         -9.2923931816       -0.2894737294        3.4203802388
 H        -10.3572361890        0.3175287683        1.2223735815
 H         -6.7532635649        1.2163563207       -0.4532342912
 H         -4.9187612604        0.4376974355        3.7241310049
 H         -0.6378942796       -0.7874139748        3.3866705855
 H          0.5016462971       -0.8340526028        5.5859715230
 H         -0.6010111467        0.3008056620        7.5312455199
 H         -3.6825548072        1.6281620059        5.2185490365
 H         -1.1914682327        0.5968196526        1.6390963901
 H          0.2921645915        0.9020086436       -2.0142836225
 H          2.3431418083       -0.4311489042       -1.8145561592
 H         -1.8460684160       -1.8612375038        0.4580152979
 H         -1.2636322840       -4.1915628654        1.7684492770
 H         -0.1560255485       -6.1780436510        2.7403906021
 H          2.2287765079       -6.5887964296        2.3662244607
 H          3.5856119774       -5.0526494773        0.9968586306
 H          3.9073647776       -4.6228714356       -1.3948874352
 H          6.2764583694       -4.3844451020       -2.0404769780
 H          7.4608428891       -2.2573963090       -1.6576259055
 H          8.2264297132       -2.0243437269        0.6190514466
 H         10.3422678240       -1.3388225085        1.6754974005
 H         10.9757985989        1.0220392689        1.8253753420
 H          9.4850020485        2.7861472585        0.9418007984
 H          7.4309055397        4.2009698025       -0.1982880940
 H          5.3456674088        4.9061854093       -1.3257258877
 H          3.7412733792        3.2398956982       -2.1370967221
 H          4.1393608609        0.8356326310       -1.8199158755
 H          3.9383431008       -0.6326854044        0.1413043710
 H         -3.3605713433       -2.0118731039       -1.5412255155
 H         -3.2522941957       -3.9419328645       -2.6099171291
 H         -4.2112622057       -4.9333208110       -3.7049387821
 H         -3.0353576164       -3.7845257751       -4.3508693031
 H         -6.6370014745       -2.3110225125       -2.5148942959
 H         -5.3873290973       -3.0458562979       -1.5154585548
 H         -6.3537619075       -4.0524225062       -2.5926740764
 H         -4.9248546719       -2.8781159307       -5.7976972349
 H         -6.0247024835       -4.0155316392       -5.0264111276
 H         -6.4169643314       -2.3010346694       -5.0326508658
 H         -4.9145959028       -0.6462266886       -5.2937705019
 H         -3.9230884971        1.5466647971       -4.9358234334
