125
 energy: -182.722187927836 gnorm: 0.000079261106 xtb: 6.7.1 (edcfbbe)
C           -0.75461290217702        5.31844498502743        1.08192905148878
C           -0.16576283594139        5.15903567400063       -0.32687652635589
C           -0.13989671496398        6.53982637313151       -0.98808966081319
C            1.27878192350604        4.64553879512697       -0.23535799294666
C           -0.99178973403135        4.14634259281484       -1.10474987802601
C           -1.59422664701811        4.44000329316430       -2.32409609522766
C           -2.32204309305891        3.49373574759496       -3.02904314653915
C           -2.45336997917749        2.22034114881054       -2.50665706015823
C           -1.85777778616145        1.91275949458671       -1.27556010604377
C           -1.13903177770623        2.85847033483250       -0.58376904680538
C           -2.14143780377591        0.47508987565174       -0.88621773445644
C           -2.95379799224839        0.47503124766313        0.39628031774031
C           -4.32208183175941        0.47581169248341        0.36708944207364
C           -5.10731602780723        0.47170183279398        1.57078369512806
C           -6.51162747702542        0.36653094521988        1.53435830545098
C           -7.34102130600118        0.08509832592484        2.67763640485481
C           -8.70004221498948        0.09061775065941        2.58937390834573
C           -9.30909255093409        0.30916945415494        1.33808186025474
N           -8.55153164937239        0.63797004985146        0.29669991546751
C           -7.26469052290784        0.68236085495262        0.34997707529624
C           -4.38911912977605        0.51439157898505        2.79653521946386
C           -3.01661000969685        0.52241793822993        2.83088307130811
C           -2.30439462406702        0.47249728799992        4.10571075030002
C           -1.13576910421240       -0.27873702927497        4.27048090591049
C           -0.50546470415149       -0.29868952238746        5.50034752262963
C           -1.06372842373346        0.42642847759374        6.54372446114336
N           -2.16087868315571        1.15122167832173        6.39637022458305
C           -2.75703270986686        1.18004822512726        5.22541771399015
C           -2.27947352652732        0.53369326829032        1.62287160628658
C           -0.89399336695232       -0.36999765146095       -0.74876139260084
C            0.28342682226729        0.00044024050244       -1.40314504581011
C            1.44479854908530       -0.73715507201699       -1.28830773826630
C            1.42455625602105       -1.86942854490109       -0.48873630194685
C            0.22698601109801       -2.29293454420390        0.12911905976118
C           -0.93114890022546       -1.54316032667649       -0.00764998004789
C            0.53565029268392       -3.51407355822642        0.82064022682100
C           -0.20919474719640       -4.37433604553517        1.61551089186687
C            0.41806493368352       -5.47432600430988        2.16694501964311
C            1.77269951321256       -5.71171034247349        1.94663100058723
C            2.53569496433929       -4.86762156742539        1.16167919433633
C            1.90602293466651       -3.77397133085564        0.58602184479520
N            2.43105358425898       -2.77119319482448       -0.20654000917463
C            3.77008801729317       -2.64629548834745       -0.59783705686440
C            4.43002760291052       -3.71146732516769       -1.20457217648500
C            5.75543515192300       -3.57340925201712       -1.57475618517257
C            6.43006188718626       -2.38628013676891       -1.35648664778351
C            5.77654082461419       -1.31982502027836       -0.74225593624776
N            6.45866397991368       -0.12421510335446       -0.49009680786466
C            7.69457422724004       -0.01570187215464        0.12099665509536
C            8.51568851716003       -1.00589004708838        0.64061273733232
C            9.70375055287511       -0.61664459301703        1.22956340474024
C           10.06979412736739        0.72462447823350        1.31285733845959
C            9.24383324983568        1.71647456897860        0.82314187348872
C            8.04460228371915        1.34965284537957        0.22732532843879
C            6.96226392132129        2.09625390907844       -0.35071404349527
C            6.73554622913432        3.45239623442177       -0.54495163214163
C            5.56757294697124        3.84630659299125       -1.16691163147179
C            4.64275680486624        2.90520349513824       -1.61191380892988
C            4.84853659946577        1.55124599029915       -1.43096033371689
C            6.00396040549178        1.14937382545689       -0.77790776016311
C            4.44621658166681       -1.45463660819847       -0.36164423291737
C           -2.94338768545100       -0.00341880229564       -2.08059780589142
C           -3.47868524288765       -1.24982953287518       -2.30108652933951
C           -4.22605516787735       -1.49565203467142       -3.45524269627647
C           -4.83581774941956       -2.87477383940504       -3.64990529677442
C           -3.71581057518800       -3.92491760852262       -3.65257012748213
C           -5.80739501385979       -3.14978263277865       -2.49253608735191
C           -5.61101243995475       -3.00315592751881       -4.96387834030645
C           -4.39488634541555       -0.45872660465298       -4.36778244988316
C           -3.84986244542690        0.79880076449136       -4.15880863734166
C           -3.12132409687491        1.03294224424369       -3.00717704084190
H           -1.78990929549092        5.64756018776034        1.02070169075276
H           -0.72831575230254        4.38412481146407        1.63551231317185
H           -0.18884090344363        6.06002985498629        1.64214087570400
H            0.31247614803050        6.49494165127296       -1.97617616621329
H           -1.14312197123457        6.95114804859949       -1.07278334862951
H            0.45255672077239        7.22070632737939       -0.38004248794090
H            1.89431407966281        5.34695509299197        0.32383338674706
H            1.70033462674008        4.53761346004894       -1.23258718289490
H            1.32761437621788        3.67961742213620        0.26007787986154
H           -1.50174169036587        5.42540247012351       -2.75086422616172
H           -2.77441635190607        3.75199375885044       -3.97532672026638
H           -0.68454110115350        2.59441735159575        0.35869537219893
H           -4.82809360652640        0.45756241775340       -0.58448620155165
H           -6.87191061776204       -0.19114127573032        3.60906297389983
H           -9.31950491538191       -0.14964802709337        3.44001634724116
H          -10.36638360345062        0.19298227333715        1.17132429948345
H           -6.76524413208103        1.08211755870637       -0.52058616978037
H           -4.93387277491294        0.48608576739684        3.72729195178256
H           -0.74472121879934       -0.86029662820848        3.44751112061168
H            0.39315091335510       -0.87676168148509        5.65340326161533
H           -0.62389340411620        0.43115718175262        7.53155465173174
H           -3.63132075587866        1.81465590048368        5.15810822731156
H           -1.20388788359545        0.59663608835674        1.65361885206594
H            0.28609716459509        0.89147479462782       -2.01272598299637
H            2.33745140994259       -0.44215704857589       -1.81733370853569
H           -1.84361437688914       -1.86357378500541        0.47249777877289
H           -1.25526727940204       -4.18056560420103        1.80003606584181
H           -0.14367117624725       -6.15779852561988        2.78587950166801
H            2.23903817781693       -6.57220129021641        2.40300530243949
H            3.58928425795134       -5.05005630370197        1.01326391512475
H            3.89759204761634       -4.62996032725103       -1.39729022660444
H            6.26447589313912       -4.39618943092891       -2.05378537401530
H            7.45551567508158       -2.27291279014631       -1.67209874198410
H            8.23417648615514       -2.04732583557426        0.60068908954924
H           10.36118730801331       -1.36996456725363        1.63786981783067
H           11.00836938174970        0.98775096628986        1.77727521906244
H            9.51759827662155        2.75757814190358        0.90355500985919
H            7.46321778225739        4.17954666674911       -0.21779732267929
H            5.36929559051878        4.89606679213069       -1.32310476548877
H            3.74677837426866        3.23809791847180       -2.11406703375467
H            4.13541866182067        0.83244641730543       -1.80232221419492
H            3.94536581969215       -0.64385453870195        0.14547311078333
H           -3.32631160223438       -2.02795294500957       -1.56887489955781
H           -3.16723599958946       -3.92582676673391       -2.71477965290533
H           -4.13421926000102       -4.91801135607754       -3.80291091027463
H           -3.01221546093312       -3.72104046028450       -4.45732535555124
H           -6.59346202778784       -2.39737560532712       -2.47374655582934
H           -5.29775281008207       -3.13041795491819       -1.53311299860341
H           -6.26880199490321       -4.12759992413585       -2.61418119367209
H           -4.96263183982807       -2.82941646672716       -5.81972648909476
H           -6.01563308514363       -4.00988721646893       -5.04816358895174
H           -6.44356691872951       -2.30432092683252       -4.99786825249274
H           -4.96509946331352       -0.61765060385297       -5.26844025121452
H           -4.00077806655114        1.58306071498840       -4.88609923797302
