125
 energy: -182.720886028007 gnorm: 0.000167753188 xtb: 6.7.1 (edcfbbe)
C           -1.81419686258636        4.21696226519771       -3.49350911013555
C           -2.56798706701389        3.38621285896150       -4.53588092451355
C           -3.84957794519432        4.14337167714164       -4.91184234714015
C           -1.66831444296345        3.24010761479489       -5.77157022708347
C           -2.94022464236508        2.00270176477016       -4.02525480747933
C           -3.63979643620968        1.13263818474717       -4.86206752931190
C           -4.01283049998595       -0.13672211899714       -4.45951810867682
C           -3.67780739035942       -0.55803717700614       -3.18400948954461
C           -2.96938552037576        0.30150665899600       -2.33554864485422
C           -2.60696375580010        1.56648460093575       -2.74480355628952
C           -2.72354282251565       -0.35485016036726       -0.99121739083103
C           -3.39744654347592        0.47724431599288        0.08342830504111
C           -4.66130196509831        0.18412835355462        0.51771683680750
C           -5.31663194654381        0.97101288817103        1.52395784954294
C           -6.63029371766908        0.68555603387408        1.94116935913531
C           -7.45138082934171        1.57679416853965        2.72251328249301
C           -8.67718422601715        1.19713440632284        3.17716812440933
C           -9.18357511821256       -0.06913296402715        2.82246066714425
N           -8.40178163720002       -0.91988609173596        2.16241499765490
C           -7.22316525461577       -0.61087988976888        1.74423841417549
C           -4.57764621703762        2.06183468281638        2.06174465311705
C           -3.31488181788921        2.36810729639463        1.61862048953508
C           -2.57063336966074        3.48335274383629        2.20347423370985
C           -3.18652049978297        4.68658413247101        2.55577866492994
C           -2.43428212246165        5.70198475505757        3.11562620801330
C           -1.07464788783836        5.49291104954087        3.29811680603101
N           -0.48041480817759        4.35651006995625        2.97591417195122
C           -1.19650929388321        3.38553205459959        2.45155019745226
C           -2.70904538309704        1.57785841725242        0.61450053765038
C           -1.25974802357675       -0.58443737268672       -0.67885576069097
C           -0.31580702381103       -0.64644771036420       -1.70646629004613
C            1.01940175006481       -0.90227888422039       -1.45985823691997
C            1.41129634738858       -1.11679641534534       -0.14677115239019
C            0.47146328148764       -1.04530348213140        0.90575055599825
C           -0.86331566328999       -0.79103231997314        0.63500574159370
C            1.20288825867652       -1.26112023370562        2.12357469539711
C            0.83277275814946       -1.31775030516437        3.45980454096687
C            1.80742141013076       -1.57255738597255        4.40481907198919
C            3.13131398559395       -1.78437783833270        4.02846124288999
C            3.52376188254057       -1.73038686347494        2.70405225021034
C            2.55422247700711       -1.44854992566494        1.75259394536444
N            2.66609468322093       -1.35928842733878        0.37764100984462
C            3.84631421569920       -1.50001203444369       -0.36105039173338
C            3.88826556762328       -2.35603771741459       -1.45907211412212
C            5.05949410486776       -2.48673393390501       -2.18219582670531
C            6.19252061280207       -1.77967057503726       -1.82426984653514
C            6.15864802467044       -0.93042100586871       -0.72046405982528
N            7.30010352696614       -0.21161570328450       -0.34864374875641
C            8.56761742502720       -0.73826209821189       -0.18730486863806
C            8.99774366263861       -2.05369638083962       -0.28470050721066
C           10.33305029169451       -2.31539345630924       -0.04329620066181
C           11.22362408164835       -1.29985922711554        0.29687674653703
C           10.79581427489131        0.00695010570528        0.42117735591586
C            9.45847562640252        0.29460305118601        0.18345978070478
C            8.68297169034410        1.50239138926263        0.24076718780243
C            8.99712804789199        2.82447644916081        0.52599641849999
C            7.99251197095050        3.76974352034208        0.46978907682644
C            6.69272782916693        3.41293188436022        0.11885093999003
C            6.35620323672006        2.10404551108847       -0.17000595638570
C            7.35597265710853        1.14549785890377       -0.09027054506981
C            4.98313404342285       -0.79027662890802        0.00830213761326
C           -3.37943708251330       -1.70655747358658       -1.19598164909207
C           -3.47711771731792       -2.74867261320515       -0.30503913187854
C           -4.14310286169496       -3.92099526980072       -0.66973168491880
C           -4.26523288755820       -5.03933665027333        0.35340634502994
C           -2.85999533896946       -5.47550842835445        0.79222321778948
C           -5.05108176323153       -4.51547274082024        1.56475853643071
C           -4.99581346469535       -6.26897495859624       -0.19268427174229
C           -4.68067003870182       -4.00539830700947       -1.95069144070785
C           -4.57717698034446       -2.96399698632173       -2.85988308861422
C           -3.92618175887590       -1.80382341927981       -2.48234515696075
H           -2.41854386114162        4.36857681103419       -2.60188090053753
H           -0.87803282767439        3.73942951797752       -3.21299247121381
H           -1.57965472541168        5.19451931069967       -3.91042289201417
H           -3.60492048974560        5.14543833490698       -5.25821792743799
H           -4.39477006250375        3.63467890114367       -5.70194469026085
H           -4.50319553759555        4.22661321902530       -4.04591315242977
H           -1.37978181585709        4.22118349356098       -6.14321281980412
H           -2.17631662833199        2.70936633715188       -6.57197614357477
H           -0.76561205713016        2.68877500304371       -5.51593271127303
H           -3.90607475751970        1.45028783144890       -5.85915317709049
H           -4.55650945091338       -0.78493363780550       -5.13101976861843
H           -2.06631826228325        2.20240335355229       -2.06419831108513
H           -5.18639551429548       -0.65378254556454        0.08901402707617
H           -7.10759413475668        2.58431012008810        2.89713896238055
H           -9.30538288607846        1.87532775253495        3.73454343948445
H          -10.19359362895477       -0.37722195124838        3.03183160516922
H           -6.63561924348795       -1.41835298140493        1.33207255715538
H           -5.00824992174745        2.64139770727816        2.86384238875704
H           -4.24214218219974        4.82500836502065        2.36924053255268
H           -2.88650498161440        6.64212963049134        3.39228739494539
H           -0.43426925456948        6.25881563404963        3.71397684786652
H           -0.65773678726388        2.47183771719981        2.23649697437546
H           -1.71531853864792        1.81786055976470        0.27348271338586
H           -0.63856563444373       -0.48274990728656       -2.72380212310497
H            1.73278558818197       -0.92135635501376       -2.26983984711012
H           -1.57837288304601       -0.73693025579648        1.44214558172849
H           -0.19653079060724       -1.16824587165836        3.74913458654801
H            1.54202839415521       -1.61813911030925        5.45033577374473
H            3.86881982621177       -1.99814174288938        4.78771509701936
H            4.54992760768794       -1.91484272156915        2.42430577710421
H            3.01075310777029       -2.92380632224753       -1.72695199825737
H            5.08946010920756       -3.14758312458461       -3.03542161927385
H            7.09944899354130       -1.86699515643260       -2.40216105548199
H            8.31261965333155       -2.85156267055614       -0.52910369660115
H           10.69286772942010       -3.33110491181549       -0.11648022625431
H           12.26013925420833       -1.54478171109197        0.47462076092270
H           11.48188571311462        0.79172986331539        0.70181517955518
H           10.00841071534006        3.10260799577887        0.78151126560377
H            8.21454211236639        4.80300350551233        0.69106304252754
H            5.93031572095052        4.17603548160105        0.06824444861463
H            5.34933080756260        1.84434063737036       -0.45999072031128
H            4.95278979581748       -0.12899151043743        0.86063350526667
H           -3.04576690534916       -2.64485685082368        0.67902378605773
H           -2.31316232350925       -4.65755660246051        1.25305052370644
H           -2.92827497215484       -6.28755007276657        1.51320575019848
H           -2.28997909394635       -5.82355168073119       -0.06696720776568
H           -5.15291807259467       -5.29857406302798        2.31314332295138
H           -6.04755284401272       -4.20119777223767        1.25988610923437
H           -4.55128061623681       -3.66775372208667        2.02594526625764
H           -4.47046776200458       -6.68875670352712       -1.04758491581069
H           -5.04446585317671       -7.03353034035091        0.58022507280343
H           -6.01429714896350       -6.02311897895183       -0.48418696377047
H           -5.19835845578073       -4.89775936397363       -2.26268636870303
H           -5.00628611934979       -3.06092196963260       -3.84640228023314
