  125
       -182.82342859
 C         -1.8162953555        4.2199562440       -3.4517244306
 C         -2.5870538456        3.4009893156       -4.4911979517
 C         -3.8593832375        4.1773339853       -4.8592482091
 C         -1.6963237142        3.2430244944       -5.7317985573
 C         -2.9734474330        2.0209924700       -3.9813357613
 C         -3.7010681558        1.1659527615       -4.8092630876
 C         -4.0839644016       -0.1007466126       -4.4070264092
 C         -3.7296800577       -0.5354420353       -3.1413311253
 C         -2.9924009496        0.3085047553       -2.3030248083
 C         -2.6217111323        1.5714843089       -2.7106007195
 C         -2.7286929936       -0.3606189281       -0.9667582089
 C         -3.3859932806        0.4775392125        0.1103021186
 C         -4.6673912193        0.1980785678        0.5579629146
 C         -5.2724299347        0.9914420147        1.5298063000
 C         -6.6119858951        0.6525761274        2.0244802810
 C         -7.5637771465        1.6299728508        2.3090272159
 C         -8.8078515880        1.2484185089        2.7791133169
 C         -9.0632699204       -0.1043265357        2.9469019406
 N         -8.1700993035       -1.0440765847        2.6869006396
 C         -6.9846559900       -0.6756709516        2.2430256060
 C         -4.5866853022        2.0889869759        2.0373875992
 C         -3.3046476887        2.3889123251        1.5890359350
 C         -2.5685835741        3.5376132609        2.1308298034
 C         -3.1899561294        4.7602900129        2.3772608718
 C         -2.4436291489        5.8096207071        2.8836716370
 C         -1.0935780337        5.6024736141        3.1245383987
 N         -0.4903036201        4.4471245472        2.9019586572
 C         -1.2058305292        3.4483703666        2.4237939382
 C         -2.7139090264        1.5771654813        0.6271377732
 C         -1.2606163250       -0.5958865658       -0.6715226990
 C         -0.3248017839       -0.6380230743       -1.7073047845
 C          1.0123029864       -0.8976999256       -1.4753628118
 C          1.4146601610       -1.1399682210       -0.1707652776
 C          0.4817640652       -1.0930770007        0.8890629503
 C         -0.8546821925       -0.8292310685        0.6331572790
 C          1.2190117267       -1.3396046132        2.0963371095
 C          0.8552691394       -1.4337221568        3.4329526867
 C          1.8334723058       -1.7144552064        4.3654394592
 C          3.1557582607       -1.9154777573        3.9763806736
 C          3.5416838607       -1.8247816739        2.6525481322
 C          2.5679715171       -1.5170772626        1.7134042519
 N          2.6730961391       -1.3930636039        0.3404859219
 C          3.8536883337       -1.5014779272       -0.4032794032
 C          3.9041484779       -2.3221873015       -1.5273441761
 C          5.0777131991       -2.4218372018       -2.2517677234
 C          6.2059602015       -1.7205005514       -1.8682420587
 C          6.1636706520       -0.9069733486       -0.7384479986
 N          7.3012955655       -0.1968831181       -0.3371546228
 C          8.5662464502       -0.7282282844       -0.1733712978
 C          8.9984401519       -2.0399065342       -0.3056801548
 C         10.3294709499       -2.3095495095       -0.0502461754
 C         11.2140605006       -1.3056909851        0.3372327227
 C         10.7843906803       -0.0031391549        0.4939187421
 C          9.4512611144        0.2926317219        0.2422202214
 C          8.6748490460        1.4981494353        0.3241474957
 C          8.9846379580        2.8115802904        0.6515667258
 C          7.9805336703        3.7578869502        0.6096620568
 C          6.6852015132        3.4109591181        0.2329340001
 C          6.3531558988        2.1111837676       -0.0986792895
 C          7.3526767251        1.1511360498       -0.0357991682
 C          4.9849518209       -0.7954167019       -0.0103448422
 C         -3.4019404512       -1.7043745877       -1.1690421831
 C         -3.4825331195       -2.7574459625       -0.2892891350
 C         -4.1619880416       -3.9225251966       -0.6527558283
 C         -4.2476582253       -5.0615267828        0.3510643838
 C         -2.8257710329       -5.5313930407        0.6910240974
 C         -4.9481222975       -4.5568793442        1.6212669391
 C         -5.0337823855       -6.2635630361       -0.1789582629
 C         -4.7340557239       -3.9865505830       -1.9194585149
 C         -4.6466843184       -2.9345920388       -2.8183427192
 C         -3.9781480134       -1.7840291252       -2.4434662093
 H         -2.4111566138        4.3732634092       -2.5538222923
 H         -0.8818883630        3.7332101029       -3.1816516380
 H         -1.5765402423        5.1971117968       -3.8664422200
 H         -3.6008266900        5.1743826976       -5.2098483893
 H         -4.4186766649        3.6761909218       -5.6441947103
 H         -4.5050197087        4.2735030031       -3.9886176142
 H         -1.3937683301        4.2198883147       -6.1033341764
 H         -2.2176279589        2.7216825556       -6.5298417684
 H         -0.8015512415        2.6765217161       -5.4817823567
 H         -3.9817730119        1.4932007643       -5.7992322176
 H         -4.6496518570       -0.7369509512       -5.0717113723
 H         -2.0568053885        2.1953453779       -2.0384206291
 H         -5.2104824660       -0.6376610327        0.1435040207
 H         -7.3360034814        2.6737748249        2.1441105693
 H         -9.5652003175        1.9835893560        3.0047191421
 H        -10.0221551019       -0.4555287081        3.3045461918
 H         -6.2837062949       -1.4810199532        2.0645738241
 H         -5.0334733272        2.6870089972        2.8185426500
 H         -4.2401510452        4.8894467730        2.1552182329
 H         -2.8966452567        6.7694810145        3.0790183704
 H         -0.4637327417        6.3924392735        3.5115133929
 H         -0.6700580389        2.5185904532        2.2787195733
 H         -1.7181889321        1.8086191875        0.2796861081
 H         -0.6551527709       -0.4558928132       -2.7190955765
 H          1.7190505477       -0.8994468503       -2.2913333309
 H         -1.5619652115       -0.7893976451        1.4484139112
 H         -0.1730040837       -1.2932641585        3.7310206124
 H          1.5734489375       -1.7896593834        5.4106861315
 H          3.8968957619       -2.1505348720        4.7258809445
 H          4.5665028445       -2.0017938292        2.3630469145
 H          3.0313603366       -2.8875130406       -1.8151451050
 H          5.1138195352       -3.0551179799       -3.1255190813
 H          7.1156240942       -1.7856614229       -2.4448406185
 H          8.3175032047       -2.8292845316       -0.5866320821
 H         10.6906221129       -3.3226634564       -0.1490423971
 H         12.2471753857       -1.5568924988        0.5259452077
 H         11.4654933676        0.7722761796        0.8105224112
 H          9.9923984781        3.0821470621        0.9284938736
 H          8.1991423601        4.7844028953        0.8636594953
 H          5.9228155300        4.1749697572        0.1962523240
 H          5.3500001361        1.8593160783       -0.4079775992
 H          4.9483927843       -0.1607555571        0.8618060434
 H         -3.0210989477       -2.6714941730        0.6827769033
 H         -2.2384310090       -4.7333935309        1.1369925352
 H         -2.8632287242       -6.3609345218        1.3938391008
 H         -2.3153487253       -5.8649689944       -0.2102701645
 H         -5.0382904009       -5.3640515781        2.3450905735
 H         -5.9470541079       -4.1960497043        1.3837336392
 H         -4.3921606987       -3.7472922814        2.0865252679
 H         -4.5618970744       -6.6809278069       -1.0656201463
 H         -5.0629935990       -7.0407517166        0.5821564478
 H         -6.0588494115       -5.9875096267       -0.4151442017
 H         -5.2643320095       -4.8719737038       -2.2298334367
 H         -5.0995153617       -3.0173395998       -3.7955067146
