71
 energy: -120.868001255282 gnorm: 0.000065560046 xtb: 6.7.1 (edcfbbe)
Cl          -1.44306291783056       -2.67870592191706       -0.72261485188183
C           -0.65228270504285       -1.25970445373890       -0.09939403044471
C            0.76468456852097       -1.23334106802407        0.02095595003418
N            1.53935447021576       -2.36857683914091       -0.13088975383861
C            2.67885109036809       -2.46301347365215       -0.91258086661216
C            3.29759493758566       -1.49417633553135       -1.68782114051740
C            4.43125979849706       -1.86043259960290       -2.38962009197068
C            4.93241539802590       -3.15845579987207       -2.33427136514029
C            4.31038076913159       -4.13087629668364       -1.57256915779259
C            3.17593798412948       -3.78488160357248       -0.85401121987090
C            2.30385339264445       -4.51271848357536        0.02922142808891
C            2.29873548106289       -5.81665500660820        0.50089795145579
C            1.32727735999397       -6.18719417213326        1.41244572210825
C            0.39092420753045       -5.26626048295822        1.87470203317976
C            0.37755484495684       -3.96181121703704        1.41797472755334
C            1.31865998965013       -3.59696562308730        0.46593965442288
N            1.42154568889346       -0.06805649828572        0.12768586021699
C            0.80843596123694        1.07165484106110        0.27467672745333
N            1.55239271996967        2.21698629937583        0.34470424117890
C            1.08491768147129        3.51953465389043        0.18782841489063
C           -0.17879149778248        3.98526554725700       -0.14214098346473
C           -0.36255958472032        5.35228566877982       -0.25194190519203
C            0.68508510869609        6.24575890245406       -0.05595076131219
C            1.95448929254535        5.78874018795823        0.24721107941676
C            2.15726918692204        4.42272748931324        0.36423248170132
C            3.32852975463145        3.62977559366055        0.63081423139568
C            4.65128838146238        3.95979298683194        0.88081891457828
C            5.55672611327652        2.93762633444315        1.10026058293376
C            5.14785303953496        1.60824791623288        1.07819281844578
C            3.83128015395998        1.25786442843126        0.83421686205124
C            2.92145594487371        2.27797522143267        0.60116862836296
C           -0.64324221268005        1.11558273431678        0.45428814300960
Cl          -1.15269173277243        1.76184524362972        2.04646995689269
C           -1.35706210847209       -0.09427193135193        0.06548474392352
N           -2.73812973114644       -0.02361997134574       -0.07674137736128
C           -3.67941866180001       -0.78395533628945        0.58791538331025
C           -3.50059429427533       -1.77257577663253        1.54350681520689
C           -4.62978223768177       -2.36203302688520        2.08033037474699
C           -5.90750384885735       -1.97197245895973        1.68878865811978
C           -6.09157599619150       -0.96240005356148        0.76217101893684
C           -4.97335474685405       -0.35753262541639        0.20806164231782
C           -4.79147599735134        0.71852954178803       -0.72989602302940
C           -5.66137406674507        1.52836441615709       -1.44458981111396
C           -5.13017750556745        2.48606415126606       -2.28948203857285
C           -3.75340241784126        2.62697436870409       -2.44366929359356
C           -2.86661873468132        1.82438754377823       -1.74988189407770
C           -3.39604762458064        0.88968671742565       -0.87358394894032
H            2.91015526307363       -0.48924179213151       -1.73257738951007
H            4.93734262282264       -1.12355384838309       -2.99522686272187
H            5.81926014078465       -3.40705268233118       -2.89796086316208
H            4.69688290318256       -5.13809310641244       -1.53535915694401
H            3.04469766539071       -6.52218105904172        0.16784909552825
H            1.30245603781896       -7.19928307649905        1.78771082229259
H           -0.33664878933056       -5.57532884869341        2.61022858002436
H           -0.33375685436321       -3.24966760112554        1.80526222082103
H           -1.00249903995849        3.31112239518221       -0.30829328853408
H           -1.34292772793972        5.72931809081132       -0.50143306250150
H            0.50422024477606        7.30584696822272       -0.15142034867047
H            2.77432827271013        6.47673231496869        0.38645367982374
H            4.96275637310696        4.99295033046831        0.90406437710321
H            6.59264118364795        3.17186024779554        1.29496550454677
H            5.87269389226572        0.82821903653597        1.25665803318159
H            3.52356397639055        0.22661178170500        0.82267329374832
H           -2.51504603503997       -2.06466396807777        1.87015778652914
H           -4.51793176182109       -3.13858442809067        2.82235825417139
H           -6.76554136704643       -2.45856871104367        2.12803964531908
H           -7.08329962421316       -0.64388546764397        0.47868123814564
H           -6.72955284742785        1.41023708158675       -1.34319490069153
H           -5.79167075595075        3.12888263126216       -2.85092569466063
H           -3.37026723026932        3.37082366832103       -3.12636326727799
H           -1.80028103478633        1.90797908173448       -1.89570544204471
