71
 energy: -120.867992711403 gnorm: 0.000052805812 xtb: 6.7.1 (edcfbbe)
Cl          -1.57951229273375       -1.48286770707920       -1.97287277780437
C           -0.91149485799637       -0.97559522310484       -0.38935594851495
C            0.51399813221564       -1.26665464520287       -0.23127228811357
N            0.97486287412106       -2.55135361851640       -0.31886506300973
C            2.28876835847420       -2.92175011319346       -0.60162577753005
C            3.40269708054939       -2.13473999068600       -0.85164007390635
C            4.59961082158368       -2.77484032743337       -1.12235696320756
C            4.69380592985634       -4.16232429878328       -1.15389243624491
C            3.58349675855183       -4.95224467927045       -0.91711218286316
C            2.37596290715845       -4.33062261380260       -0.64042317824958
C            1.05989271943702       -4.83675083377852       -0.35142854653580
C            0.55301025618058       -6.12094154294986       -0.22996967152410
C           -0.78122317233292       -6.27752745156307        0.09788896719567
C           -1.59369769350492       -5.16944870236681        0.31323182996135
C           -1.10497966192139       -3.87997672266212        0.19943570506145
C            0.22538393869701       -3.71353854977971       -0.15430574970876
N            1.37418700903119       -0.29941882100306       -0.08693962811400
C            1.00426555185971        0.98456517898394        0.03655794255802
N            2.02071476021925        1.90941645712632        0.18970453554883
C            2.08199025791086        3.16374585617343       -0.39045981279113
C            1.24292597571406        3.74618969872103       -1.32959794938574
C            1.54962052971218        5.01984855259743       -1.77010529366630
C            2.67332426284127        5.69749496772113       -1.30459069603159
C            3.54072893282183        5.10297479825649       -0.40674729764025
C            3.25237538074942        3.82529262648097        0.04835843473641
C            3.94138261320579        2.90589258148121        0.91458774019425
C            5.12915776076794        2.97465307053805        1.62694119135609
C            5.51812032793023        1.87572380725024        2.37111790586880
C            4.73521342053374        0.72497445506207        2.41495140179749
C            3.54374876980523        0.63600737592421        1.71900515231014
C            3.15680588709280        1.73111614766870        0.96172700053988
C           -0.36763038938674        1.33468295904421        0.17424433128927
Cl          -0.80506853624345        2.89182212664353        0.81546567534305
C           -1.32315417856508        0.36403646298739        0.01074749232936
N           -2.68204901731264        0.61361919309229        0.16462753551088
C           -3.52860673778369       -0.12912003539880        0.96054590751773
C           -3.22427429897356       -1.16644672276489        1.82839754402636
C           -4.26858666298396       -1.74825241578694        2.52321510653685
C           -5.57674958911229       -1.29346888148986        2.37822483812865
C           -5.87730720892405       -0.23323368434110        1.54228955498887
C           -4.84779292278398        0.35985551820115        0.82698906576018
C           -4.78153100272316        1.45591908151168       -0.10307620816288
C           -5.73288574626358        2.30687139187239       -0.64539721828446
C           -5.32565396479737        3.25437106917581       -1.56636023936136
C           -3.99449802039428        3.34224848276232       -1.96422882887088
C           -3.02906423638278        2.50371391762510       -1.43936119420230
C           -3.42612143229914        1.57541792570892       -0.48902535937899
H            3.33852998381240       -1.06054554796139       -0.83266951828910
H            5.47974974163841       -2.17983014814769       -1.31472560276122
H            5.64494735250998       -4.62560507582135       -1.36976655270066
H            3.65059601271096       -6.02906860980943       -0.94752050114544
H            1.19147215952083       -6.97729662168454       -0.38452594331730
H           -1.19724089382729       -7.26879266503098        0.19759662995692
H           -2.62940641251852       -5.31398750069108        0.58145343473445
H           -1.74982291414420       -3.03622701464761        0.38054537530485
H            0.38620930463149        3.21967150263084       -1.71938945632857
H            0.90701021291129        5.49650092113977       -2.49518133113210
H            2.87663681248174        6.69418467633454       -1.66658114381988
H            4.42938806980611        5.61589295616306       -0.07156432183349
H            5.73457975899700        3.86791026471369        1.59842235736975
H            6.44161629643411        1.90820989773663        2.92981073267244
H            5.06404705848593       -0.11613173810003        3.00679095757340
H            2.93823391684741       -0.25510617877353        1.75451695316411
H           -2.20503388560185       -1.49382647375943        1.96729744000847
H           -4.06362407500251       -2.56481862220754        3.19952325874281
H           -6.36577057555078       -1.77092734083471        2.93990610865786
H           -6.89013196725397        0.12810218782002        1.44814766285665
H           -6.76984567141312        2.22348297104991       -0.35715111141561
H           -6.05048706985043        3.92954250955753       -1.99612816072914
H           -3.71028525247620        4.07815434401774       -2.70166746682982
H           -2.00450001174696        2.56307914635187       -1.77109928339657
