  71
       -120.86224082
 Cl        -1.6591607151       -1.5897836663       -1.8500823333
 C         -0.9204274509       -0.9969938053       -0.3379309900
 C          0.5078338318       -1.2750600695       -0.2118461746
 N          0.9785146320       -2.5570657691       -0.3129635231
 C          2.2800136924       -2.9140726989       -0.6581124646
 C          3.3749238142       -2.1152515169       -0.9520161995
 C          4.5635896638       -2.7424788704       -1.2819093367
 C          4.6675083798       -4.1290583806       -1.3294717022
 C          3.5760162179       -4.9307855138       -1.0483003339
 C          2.3771645858       -4.3224273242       -0.7112812739
 C          1.0809404767       -4.8412621088       -0.3626479359
 C          0.5897778595       -6.1298410069       -0.2237108113
 C         -0.7243176019       -6.2981161066        0.1728185403
 C         -1.5314033599       -5.1974499000        0.4420089869
 C         -1.0583759395       -3.9039610664        0.3117822481
 C          0.2487807561       -3.7255447830       -0.1160736195
 N          1.3674439030       -0.3062653696       -0.0705900605
 C          0.9989745525        0.9782408640        0.0529972063
 N          2.0145845844        1.9018439785        0.2135626073
 C          2.0763711166        3.1619109902       -0.3529358088
 C          1.2395618475        3.7539899236       -1.2886368380
 C          1.5462199583        5.0323012646       -1.7149747520
 C          2.6680534685        5.7063287069       -1.2388051522
 C          3.5342423924        5.1026895685       -0.3456465874
 C          3.2465482756        3.8198271957        0.0946553146
 C          3.9360716320        2.8906007701        0.9491469474
 C          5.1256667171        2.9492265415        1.6590805157
 C          5.5163043956        1.8402287424        2.3877456561
 C          4.7337101984        0.6885092207        2.4176801817
 C          3.5404719408        0.6092292059        1.7238175025
 C          3.1508565283        1.7149377598        0.9828625382
 C         -0.3762128931        1.3245162033        0.1895593952
 Cl        -0.8242362425        2.8825225693        0.8218155307
 C         -1.3271808093        0.3500395977        0.0234601042
 N         -2.6881787780        0.6087761605        0.1590966818
 C         -3.5441177334       -0.1035996771        0.9712005091
 C         -3.2530869517       -1.1202400549        1.8678692299
 C         -4.3051722466       -1.6721613076        2.5749476910
 C         -5.6083851694       -1.2088801348        2.4125353676
 C         -5.8961614657       -0.1703566318        1.5451212205
 C         -4.8585795683        0.3933151730        0.8180038630
 C         -4.7779120598        1.4630214945       -0.1411727692
 C         -5.7176059658        2.3081396273       -0.7118356057
 C         -5.2953622861        3.2281839508       -1.6540622272
 C         -3.9604576534        3.2955556050       -2.0437029732
 C         -3.0062073047        2.4624763040       -1.4906821186
 C         -3.4188488717        1.5600653369       -0.5218379293
 H          3.3021921192       -1.0417478869       -0.9200332464
 H          5.4292375350       -2.1386684252       -1.5087663442
 H          5.6113782263       -4.5822357870       -1.5929739490
 H          3.6512289368       -6.0067041500       -1.0902739303
 H          1.2251256941       -6.9807275003       -0.4169525552
 H         -1.1277743730       -7.2930142440        0.2868448183
 H         -2.5494810334       -5.3520479587        0.7665069196
 H         -1.6958072627       -3.0652276666        0.5372037061
 H          0.3845944298        3.2309977500       -1.6866965851
 H          0.9053713838        5.5159472462       -2.4369131529
 H          2.8708601772        6.7073694714       -1.5888246357
 H          4.4215544825        5.6129634612       -0.0029065026
 H          5.7320758275        3.8420813924        1.6399996785
 H          6.4412118402        1.8651911612        2.9444952385
 H          5.0642777777       -0.1604819014        2.9971185049
 H          2.9351486590       -0.2823762441        1.7477967800
 H         -2.2373365570       -1.4534867191        2.0179002002
 H         -4.1107462561       -2.4712614232        3.2748343398
 H         -6.4038347467       -1.6624092733        2.9848718336
 H         -6.9054527886        0.1967355446        1.4362578267
 H         -6.7572838303        2.2416634500       -0.4290355225
 H         -6.0113938690        3.8979156254       -2.1065447669
 H         -3.6648101633        4.0106724068       -2.7969429236
 H         -1.9780405607        2.5049732116       -1.8141974946
