71
 energy: -120.958609022303 gnorm: 0.000047391060 xtb: 6.7.1 (edcfbbe)
Cl          -1.64075370701669       -2.50663009732655       -1.01066956694904
C           -0.78867917625933       -1.14938262865289       -0.35702175942557
C            0.61064843015580       -1.12729870035058       -0.25943982383084
N            1.39462927842042       -2.24018802853494       -0.49381664184026
C            2.54586562158196       -2.24737746930986       -1.27500195074831
C            3.17067463810105       -1.20129950391179       -1.93198099733954
C            4.29235636733949       -1.49536337272263       -2.68576283472633
C            4.77955304577779       -2.79549883450330       -2.78825672556287
C            4.15624208900049       -3.84123316434381       -2.13588979399422
C            3.03033083203765       -3.56835825653909       -1.37092173956269
C            2.16222008320425       -4.38804469327661       -0.56793186804289
C            2.16802875247556       -5.73602657031741       -0.23823772275416
C            1.20817819977180       -6.20753661441472        0.63621140070170
C            0.27319386782658       -5.34581842081845        1.20121719338867
C            0.24977823565739       -3.99951824477310        0.88570043444661
C            1.17653615045561       -3.53097190030992       -0.03190534070090
N            1.25515111913602       -0.00021985990285       -0.00002006205650
C            0.61106524300185        1.12709306778308        0.25941609185670
N            1.39545416099056        2.23969617166950        0.49378922934938
C            1.17782064067312        3.53056161344384        0.03189085689174
C            0.25122872997146        3.99944643140485       -0.88570920100856
C            0.27511785582699        5.34574276335448       -1.20120731902667
C            1.21040095950233        6.20712508789944       -0.63618362741447
C            2.17008174281733        5.73526633532360        0.23826428496053
C            2.16380174683660        4.38728112130324        0.56793606421947
C            3.03162676424069        3.56727591057971        1.37090934439947
C            4.15763376535567        3.83974232622528        2.13588200251190
C            4.78056360878944        2.79378172794411        2.78825023670799
C            4.29289943703141        1.49382209359671        2.68574981533681
C            3.17111821842684        1.20016374386450        1.93195788731713
C            2.54668795342188        2.24646944971123        1.27498128456187
C           -0.78825103720110        1.14968474506911        0.35702982996856
Cl          -1.63981658003871        2.50723533544879        1.01071148072835
C           -1.50222059359032        0.00028094138996        0.00001257280502
N           -2.89267235047870        0.00054107160137        0.00004761641082
C           -3.70167248073837       -0.83906201092442        0.74513617380000
C           -3.34759851440476       -1.80219528489632        1.67528984564407
C           -4.36571888588254       -2.49102208159612        2.30730305345144
C           -5.70348714213683       -2.21882817713253        2.03344932976789
C           -6.06012664915906       -1.23730132073955        1.12950057050887
C           -5.05434043510117       -0.53524760255620        0.47920128622645
C           -5.05414548210487        0.53704303286944       -0.47919361449110
C           -6.05967364505794        1.23942374467166       -1.12953942722466
C           -5.70267380306120        2.22081779776574       -2.03349018836501
C           -4.36480496040377        2.49256050782127       -2.30730020803798
C           -3.34693809068166        1.80340378278671       -1.67523870190260
C           -3.70136742985996        0.84040318761220       -0.74508306870202
H            2.80122137420046       -0.19243394451603       -1.84531393583984
H            4.80248650132378       -0.69751763847623       -3.20456935292434
H            5.65848918723709       -2.98503057667378       -3.38624185468835
H            4.53192715578683       -4.84994626820602       -2.21629928534747
H            2.91583279516122       -6.39597124966616       -0.65076518953260
H            1.19222463345007       -7.25353862368875        0.90329012251847
H           -0.44595537441178       -5.73326875092465        1.90738432836546
H           -0.46136870362310       -3.34020405159934        1.35735225563019
H           -0.46016163931493        3.34039202793309       -1.35735670464679
H           -0.44390588056102        5.73345962545450       -1.90735548540932
H            1.19482038184151        7.25313454660464       -0.90325350957442
H            2.91813069704215        6.39493805626906        0.65078353067162
H            4.53366752031749        4.84832361360945        2.21631601812609
H            5.65955912492160        2.98299702774940        3.38624837504421
H            4.80274674542069        0.69578939320303        3.20454694499677
H            2.80131110830653        0.19142930077543        1.84527273551231
H           -2.31266473969825       -2.00166036343566        1.90865346171209
H           -4.11793583069151       -3.25249528662462        3.03179789924954
H           -6.47081955394320       -2.77913640460841        2.54635927845882
H           -7.09772478396753       -1.01415601639730        0.93279736297788
H           -7.09735350063757        1.01662646600881       -0.93287305145389
H           -6.46980023159384        2.78137322041564       -2.54643812727537
H           -4.11674074093593        3.25393782143310       -3.03179962991849
H           -2.31192982028441        2.00251792205998       -1.90857088892612
