70
 energy: -113.084685635961 gnorm: 0.000046989172 xtb: 6.7.1 (edcfbbe)
C            4.07993351101898       -3.18791649954719        0.89444377727515
C            4.59898469818822       -1.91200410322051        0.66314038784146
C            3.70650825409846       -0.90327207917616        0.29950242036957
N            4.13713537763558        0.40527767307826        0.11403025979947
C            3.67282566175339        1.26901250748400       -0.86944821103517
C            2.68275763618739        1.07726765024035       -1.82085493940208
C            2.43288503004830        2.10716320051768       -2.70981954403926
C            3.15239162911699        3.29877001651986       -2.66417311998313
C            4.14683103248401        3.49134830838759       -1.72400059160139
C            4.41120558736706        2.47206481635315       -0.81902467797428
C            5.34193607203540        2.33957729599468        0.26948420670735
C            6.28750688236837        3.19628823307071        0.81581547194895
C            6.99925993882500        2.77780175532405        1.92402284894808
C            6.75431870416550        1.53404784522893        2.49884850270654
C            5.81866770945742        0.66340488331146        1.96834419044200
C            5.13256440705858        1.05700115061020        0.82773289589517
N            2.42207758209749       -1.13353590631010        0.06796354350219
C            1.93701491320572       -2.37641253894188        0.21934198631400
N            0.59429866235309       -2.54691804256887       -0.05263102170450
C           -0.37699616307120       -1.57473524393355        0.09591771828509
C           -0.26636801739938       -0.26910822753173        0.53105418877661
C           -1.40988219494464        0.51487654814343        0.58636507981767
C           -2.66713321142247       -0.01956871191676        0.22464747776273
N           -3.79306491417888        0.79715957437230        0.29043314162260
C           -5.00845442857154        0.45255906500237        0.85069042529112
C           -5.37632751123094       -0.70852262031256        1.51834641807272
C           -6.66330697600932       -0.78372465802720        2.02177059447059
C           -7.56077901869206        0.27102444968790        1.88058205811775
C           -7.18909941599856        1.44437031794577        1.24479560422415
C           -5.90574237666851        1.54070513833772        0.73096831773253
C           -5.18663990156110        2.58926838934778        0.05304293100575
C           -5.53313702792386        3.86398662013295       -0.36559223562776
C           -4.58501491982113        4.62105771513699       -1.03416912894037
C           -3.31789401291920        4.11063025326271       -1.30155348797080
C           -2.95112696429524        2.83941236360137       -0.89539804940004
C           -3.88627976781080        2.08806792430975       -0.19491888330119
C           -2.79833887010066       -1.33831055740439       -0.19323001153332
C           -1.65257258344796       -2.13577569624470       -0.26442585403722
C           -1.42093858183481       -3.46802037641462       -0.65302149717022
N           -2.27789899961770       -4.41330323639699       -1.08544868116924
C           -1.76275173464505       -5.57426948319241       -1.45342481051708
C           -0.41107737131731       -5.86278442776534       -1.44899741761585
C            0.50791813613860       -4.90087948781181       -0.97056435355167
C           -0.01213123156075       -3.70891611506020       -0.53553347371941
C            2.73671717200365       -3.42651771174895        0.68898158257470
H            4.72895294210617       -3.98119176882968        1.23316207319381
H            5.65565717152445       -1.71927672094950        0.73445258709609
H            2.12016029917944        0.15862998214470       -1.85431633991921
H            1.66156364852712        1.98220376138153       -3.45566614975686
H            2.92818350650315        4.08059377806673       -3.37487645074721
H            4.70820308049603        4.41278616523864       -1.68986132488411
H            6.45291983386080        4.17261966714920        0.38629663495089
H            7.74168497821270        3.42722018499909        2.36347160498970
H            7.30046324235887        1.24260421767020        3.38390718132479
H            5.62007197616964       -0.28142661189480        2.45015692482977
H            0.68900112038370        0.13366799010908        0.82459016694553
H           -1.35396174015254        1.52248760366045        0.96371369431972
H           -4.68065645936913       -1.52237517254868        1.65098446132337
H           -6.97449042464380       -1.67883282214991        2.53914549627161
H           -8.55727904820045        0.17477135309790        2.28498060397944
H           -7.88011812867592        2.26847381679994        1.15584886348267
H           -6.52209665987899        4.25363535588912       -0.17935375299056
H           -4.83403844174519        5.61838507068973       -1.36465802736031
H           -2.60583209613570        4.71611671811193       -1.84196581086649
H           -1.97460503574097        2.44388446979495       -1.12703167824765
H           -3.74854290501683       -1.72995823639232       -0.51879703049239
H           -2.48274024747057       -6.31239829353492       -1.78461495065829
H           -0.05705241769206       -6.81918533624973       -1.79769406433423
H            1.56369359186728       -5.12153245907885       -0.97628857586046
H            2.29839792566253       -4.38164075065719        0.92559531573760
