70
 energy: -113.084686805198 gnorm: 0.000044014718 xtb: 6.7.1 (edcfbbe)
C            4.13629744390179       -3.23183357198483        0.73104893487758
C            4.63322807007463       -1.94779215935834        0.49779448761461
C            3.71156876861572       -0.93445806124876        0.22912784346721
N            4.11262802956390        0.38682789216896        0.07409037918717
C            3.54654358334329        1.29808543011827       -0.80963253075752
C            2.47522011737886        1.14560228237352       -1.67662312369623
C            2.12805089302985        2.22298331663437       -2.47169879084042
C            2.82932359401900        3.42484256862561       -2.41658663450728
C            3.90411765394888        3.57919966818035       -1.56185122433304
C            4.26700004984392        2.51144413462739       -0.75204684809174
C            5.29503873096507        2.33493747356242        0.23775207059197
C            6.27048416922049        3.18055065972397        0.74738173162058
C            7.08550888354246        2.71672283723085        1.76238642324506
C            6.91177527267117        1.43844077316802        2.28457297704453
C            5.94708659097433        0.57874468620874        1.78907058883077
C            5.15694376740102        1.01839490618157        0.73588308781532
N            2.41906093934847       -1.17344304262677        0.06509551640497
C            1.95165440198255       -2.42419525215828        0.20445642120242
N            0.60066718206211       -2.59687388731498       -0.01820119061451
C           -0.36082030856697       -1.61684670211582        0.14715184326941
C           -0.23644384394248       -0.31649046112775        0.59465505165943
C           -1.36873462511402        0.48346376783226        0.64494080002036
C           -2.63031304310638       -0.02938660576777        0.26698358951555
N           -3.73979840804392        0.81087909991928        0.30648871186369
C           -4.97589543391063        0.49695349449504        0.83827839627165
C           -5.38506339177690       -0.65018566932395        1.50596977259485
C           -6.68586956970394       -0.69400958038798        1.97649846655031
C           -7.55708783808456        0.37776543752937        1.80278935013216
C           -7.14476768344033        1.53727819534351        1.16667638487221
C           -5.84688901904740        1.60232092657927        0.68558807676361
C           -5.08910782909799        2.62907880248492        0.01638849053270
C           -5.39842564950561        3.90592249202519       -0.42445566925035
C           -4.41880425913855        4.63545717256037       -1.07805905230458
C           -3.15641241075185        4.09605609612782       -1.30838073821404
C           -2.82632765620461        2.82248059439846       -0.87893327182954
C           -3.79382018974472        2.09857945958315       -0.19373840670315
C           -2.77870714648063       -1.34693949123536       -0.14851522355008
C           -1.64376351044462       -2.16029024640209       -0.21432413615547
C           -1.42875474041422       -3.49278452940451       -0.61064060529906
N           -2.29997120239517       -4.42485243391710       -1.04290813912140
C           -1.80236530598555       -5.59037470255919       -1.41989893030168
C           -0.45412749894139       -5.89391445357484       -1.42827618027985
C            0.47965864002214       -4.94579358977825       -0.95070453972271
C           -0.02163571773954       -3.75022390989360       -0.50368936832269
C            2.78417697916687       -3.47680725982008        0.60816632218609
H            4.81042507222166       -4.02792389071341        1.00892215277485
H            5.69154389025741       -1.75196834292889        0.49912285395317
H            1.92388675496794        0.22062938066945       -1.71641074114897
H            1.29345552079194        2.12710861648198       -3.15068782599551
H            2.52761466995389        4.24411734540599       -3.05242325109733
H            4.45199632604528        4.50842342531181       -1.52025923526942
H            6.37999290561729        4.18271627532921        0.36168314321080
H            7.85345557819931        3.35638469527783        2.17123121630940
H            7.53794658863578        1.10984461697883        3.10096229161510
H            5.80728626129606       -0.39352848254481        2.23510694193001
H            0.72116176754751        0.07257220325944        0.89856948342029
H           -1.30087911971120        1.48852578986673        1.02707515398722
H           -4.71005222007696       -1.47687956306758        1.66345606963292
H           -7.02913732781867       -1.57768151902717        2.49321274320586
H           -8.56546717231593        0.30590297113001        2.18204502104960
H           -7.81594919864213        2.37454928019024        1.05232175535614
H           -6.38334515419271        4.31787838821808       -0.26699916385875
H           -4.63894987260233        5.63355067379660       -1.42625871981658
H           -2.41876010059435        4.68023270002528       -1.83779088141300
H           -1.85276433600920        2.40438948639943       -1.08103504552710
H           -3.73158893277031       -1.72422807600680       -0.48306033045357
H           -2.53378161788781       -6.31847271625750       -1.74822458477747
H           -0.11351263964768       -6.85218945861361       -1.78509875958533
H            1.53179813242087       -5.18131859236089       -0.96701465129161
H            2.36821724164485       -4.43884112850962        0.85599023110296
