70
 energy: -113.181346834389 gnorm: 0.000031060018 xtb: 6.7.1 (edcfbbe)
C            4.06656982925975       -3.18798671406178        0.97512161441382
C            4.59370073107266       -1.93117216023565        0.74028186008895
C            3.71941558243772       -0.92003571297537        0.32979003074086
N            4.14728472619111        0.38293302250357        0.13050855407838
C            3.67462858182669        1.23935657750206       -0.86016255235524
C            2.68067858844918        1.04022744068023       -1.80528030681240
C            2.42895872013282        2.06101192583197       -2.70415010612026
C            3.14940567520097        3.25220757638120       -2.67430098583696
C            4.14754335617662        3.45192882985864       -1.74074561837707
C            4.41346042542974        2.44110712237392       -0.82625390158138
C            5.34920917391706        2.32206103673185        0.25954411814966
C            6.29380391181134        3.18993809423907        0.79034246591567
C            7.01010078593233        2.79031749652186        1.90171135069033
C            6.76871252188435        1.55490881754005        2.49506896464174
C            5.83503360462663        0.67355467284385        1.97910527152612
C            5.14557457817096        1.04714304904879        0.83423134232291
N            2.43885037282111       -1.15949821857616        0.07568718408784
C            1.94881989249393       -2.37754184963438        0.25668926175942
N            0.60281163105540       -2.54188399183389       -0.06178709240233
C           -0.38062404432897       -1.56979180803572        0.08549469016777
C           -0.28045739555047       -0.27220195060649        0.56578056204335
C           -1.43206202006150        0.48457339787017        0.63594556762362
C           -2.67268614378503       -0.02263853148940        0.22629581573979
N           -3.80938728540897        0.79827020909901        0.29826502558542
C           -5.01189309711199        0.46588278747762        0.88934719015092
C           -5.37279921169929       -0.68669058529306        1.57349188392860
C           -6.64907718121323       -0.75289864902162        2.09903322678802
C           -7.55015966517634        0.30108367481733        1.95808490494032
C           -7.19039717878691        1.45829794936157        1.29643797481988
C           -5.91215163802880        1.54914883072573        0.75984472468927
C           -5.21028829724885        2.57979413535137        0.04695903788918
C           -5.56207880966467        3.85173836524906       -0.38738257593623
C           -4.62864191543399        4.59614416296842       -1.08095657655402
C           -3.36275434013054        4.08176068534449       -1.35560156767641
C           -2.98936581919692        2.81965615517313       -0.93456670224773
C           -3.91551796293137        2.07511338910659       -0.21670217596245
C           -2.78023964166285       -1.32256178846535       -0.24547824048258
C           -1.63059965151647       -2.09732520285622       -0.30414118612436
C           -1.38716061705913       -3.44624929760377       -0.73239988811399
N           -2.23799832765777       -4.34283285900396       -1.20872320609288
C           -1.72766946839134       -5.50504941551936       -1.57369696731546
C           -0.36952359011082       -5.81100578848783       -1.51783942936213
C            0.53210547898380       -4.88317629897057       -1.02016281604292
C            0.00747030276800       -3.67639284146195       -0.58084041390429
C            2.71915939252090       -3.42697670351353        0.75689024406167
H            4.70534161126308       -3.98520872277843        1.32557107783276
H            5.64754616466400       -1.74027444817574        0.84961136503243
H            2.11423983463857        0.12391791422587       -1.82952391679425
H            1.65338100965853        1.92968308782444       -3.44457048472398
H            2.92200979865004        4.02737671102104       -3.39125157743970
H            4.71112845278092        4.37235419964789       -1.71768435423738
H            6.45353870894778        4.16059927100524        0.34606537877017
H            7.75208527229236        3.44790769389686        2.32957325884793
H            7.31671152179934        1.27807784390647        3.38371515097227
H            5.64094519279988       -0.26201599794918        2.47999495609745
H            0.66961022807062        0.13489766084138        0.86856933850751
H           -1.38436964576339        1.49133349774113        1.02226148379064
H           -4.67792521335491       -1.50327377199279        1.69949800185811
H           -6.95450567455265       -1.64102331070308        2.63313505893752
H           -8.54005683892793        0.20961118409485        2.38085371681933
H           -7.88426918626627        2.28003717883846        1.19899024812729
H           -6.54782686952223        4.24485520621031       -0.18753313727017
H           -4.88139095588941        5.58853761856578       -1.42492173736924
H           -2.65809692631747        4.68193633819110       -1.91283401338442
H           -2.01153986856636        2.42505058648817       -1.16629742739945
H           -3.72541221998433       -1.72612845049591       -0.57162973529674
H           -2.44089239035804       -6.22604616096689       -1.95004778311636
H           -0.02079989833721       -6.76830593502164       -1.87218399385980
H            1.59004261615252       -5.09686402211362       -1.00501565199011
H            2.27901880531083       -4.38336928378487        0.98210971344058
