70
 energy: -113.181388482810 gnorm: 0.000034986231 xtb: 6.7.1 (edcfbbe)
C            2.37607951279382        3.20663676184928        0.27188617721835
C            3.59749260957966        2.59956762362821        0.50288885937814
C            3.70182372247936        1.22696833410051        0.26199649592503
N            4.90539496354724        0.55153492530093        0.39686374329443
C            5.05012228624656       -0.74370628903960        0.88294759424697
C            4.08598667522131       -1.63945078480493        1.31739388221228
C            4.51114898375082       -2.86852832822372        1.78810637283323
C            5.86219309909877       -3.20272374787139        1.83473312121808
C            6.82751091173410       -2.30942141411430        1.41301646093611
C            6.42194028738081       -1.07068826679772        0.93366800949987
C            7.13760152320027        0.06585633764840        0.41929664843857
C            8.48504447214575        0.30797119600159        0.18867815867102
C            8.85358261808761        1.50795048701890       -0.38760188033949
C            7.89185893236485        2.44476988705062       -0.75422373893050
C            6.54436761664719        2.22501452140299       -0.52960649377418
C            6.16923774407071        1.04078196412513        0.08870556694263
N            2.65331333197550        0.49021643011491       -0.08507791379012
C            1.47414444151931        1.07023659809728       -0.26068434044264
N            0.43124678533359        0.22084620867412       -0.62104376911927
C           -0.91575044613415        0.36746536768239       -0.31492611350634
C           -1.55041593703991        1.25804202347792        0.54161511964474
C           -2.91973296983918        1.16221237902500        0.68893202661863
C           -3.66924365763855        0.20011558575661       -0.00004434245225
N           -5.06214848451317        0.16248114201257        0.16909263976626
C           -5.80856302460049       -0.94840903917833        0.50962869039962
C           -5.39104020756903       -2.23989511566229        0.79983185884675
C           -6.35567877833989       -3.16808614021983        1.14271894586561
C           -7.70551547398493       -2.82663532289821        1.20501572276750
C           -8.12480790657701       -1.53865701537823        0.93756919630911
C           -7.17352344931938       -0.58696660116205        0.59173671290152
C           -7.24498932513370        0.81281948237588        0.27744769892635
C           -8.29278748399277        1.72001313769119        0.18213529320671
C           -8.00944440485997        3.02479385015961       -0.17001699063708
C           -6.70263525070721        3.42588424646510       -0.44140919992362
C           -5.64387085717061        2.54226333302940       -0.35270363583359
C           -5.91914669444793        1.23503900705145        0.02427669361835
C           -3.03859765868915       -0.72031063094665       -0.82413085891026
C           -1.66066187364224       -0.64474704183657       -0.96282332172932
C           -0.71189943806029       -1.45630803915765       -1.67324368623204
N           -0.91616463799990       -2.52885913240711       -2.42546934708370
C            0.15813552210597       -3.08770634019008       -2.95281358895223
C            1.45718241037624       -2.61588058816110       -2.76817691731218
C            1.68478868060803       -1.49509271098964       -1.98624142281973
C            0.56790682734044       -0.90208767398930       -1.41917736025070
C            1.29272988701047        2.44839394294300       -0.14066676405025
H            2.26663280717508        4.27170979415517        0.41290797850732
H            4.43874683813422        3.16066617371922        0.87277557289362
H            3.03848565550444       -1.38894381541767        1.27777793641499
H            3.77662987963992       -3.58505491122214        2.12561847445253
H            6.15507561963928       -4.17326531962685        2.20721143539896
H            7.87583182064933       -2.56390875754523        1.45307536253659
H            9.22460301287552       -0.43477732458714        0.44648660165423
H            9.89620133737721        1.71790051262519       -0.57445045845100
H            8.20162543948939        3.36249581837202       -1.23218105083722
H            5.81595841093658        2.95121086095417       -0.85511732607690
H           -0.99951904977214        1.98889204031571        1.11146650910946
H           -3.43054211621738        1.83239554557209        1.36370179900058
H           -4.34687638871133       -2.51206620990452        0.76617850589309
H           -6.05602795538296       -4.18094322975265        1.36972232487100
H           -8.42933585351122       -3.58209918715978        1.47380753464577
H           -9.16922650927390       -1.27101872607853        0.99881965403768
H           -9.30750593058680        1.40608221077744        0.37673869324776
H           -8.81003750345325        3.74592560021445       -0.24734588995779
H           -6.51387648854709        4.44959401118046       -0.73081475768799
H           -4.63686400375739        2.85803493542169       -0.58026970608560
H           -3.59569905995247       -1.47925204888523       -1.34942565877201
H           -0.02883450923442       -3.96458089947781       -3.55851946635009
H            2.28389616727308       -3.12915194731344       -3.23389599823029
H            2.67763714682486       -1.11108074239911       -1.81492504183671
H            0.34880734850880        2.90751906638655       -0.37944203196507
