  94
       -157.72822933
 C          9.8556813885        3.0479718539        0.4237345815
 C          8.9251099230        3.3424314158       -0.5584219589
 C          7.7619428404        2.6015301595       -0.6569352426
 C          7.5192452875        1.5473949406        0.2193335458
 C          6.2713067076        0.7714162694        0.1178635113
 C          5.0724855409        1.4361687118        0.0601515174
 C          3.8532687065        0.7335997877        0.0234423200
 N          2.6945205985        1.4064297697       -0.0297648494
 C          1.5776956699        0.7034185371       -0.0514387079
 C          0.3154685497        1.3963304720       -0.0910679415
 C          0.2354097227        2.7980044116       -0.0677625308
 C         -0.9911186000        3.4075591064       -0.0715096224
 C         -2.1462414828        2.5960689975       -0.0870602579
 N         -3.4054691459        3.1782995172       -0.0158529469
 C         -4.4136357635        2.7068487201        0.8502188851
 C         -4.4309341134        1.4208080601        1.3727227410
 C         -5.4138557291        1.0361362069        2.2705248027
 C         -6.4037589163        1.9211389320        2.6499584755
 C         -6.4086717757        3.2035370272        2.1267671605
 C         -5.4208919501        3.5984172078        1.2411880488
 O         -5.4821126572        4.8958229166        0.7895071139
 C         -4.7042225916        5.2031629815       -0.2930408284
 C         -4.9750064509        6.3828415185       -0.9661491211
 C         -4.2375623879        6.7296683064       -2.0860918330
 C         -3.2552223176        5.8753496999       -2.5511916109
 C         -2.9831811418        4.6942775479       -1.8815992358
 C         -3.6740808261        4.3598633017       -0.7223495985
 N         -2.0778026674        1.2793366603       -0.1308110558
 C         -0.8909626340        0.6786906721       -0.1304694802
 C         -0.8701964209       -0.7732821714       -0.1605142399
 N         -2.0325276761       -1.4031589761       -0.2780780961
 C         -2.0722875255       -2.7264075933       -0.2904312776
 N         -3.3058797670       -3.3075476520       -0.4494868462
 C         -4.5180769106       -2.5987068627       -0.2623182406
 C         -4.7345165335       -1.3073283573       -0.7210987658
 C         -5.9419143923       -0.6765365995       -0.4699045817
 C         -6.9417553532       -1.3226723340        0.2335212453
 C         -6.7532792814       -2.6259389082        0.6594749341
 C         -5.5520938654       -3.2657011643        0.4019581247
 O         -5.4243308005       -4.5789814740        0.7968633684
 C         -4.5378449377       -5.3137324074        0.0574221590
 C         -4.7230013231       -6.6844549572       -0.0337318492
 C         -3.8780633546       -7.4418876956       -0.8258455284
 C         -2.8812802338       -6.8252840572       -1.5621558589
 C         -2.6890647746       -5.4576162000       -1.4686786490
 C         -3.4811097498       -4.6956621369       -0.6186927768
 C         -0.9042044436       -3.5002669239       -0.0876839592
 C          0.2998325919       -2.8565909324        0.0047956433
 C          0.3547741417       -1.4548312507       -0.0684216750
 C          1.5964850546       -0.7300032606       -0.0237553184
 N          2.7338735139       -1.3997684802        0.0301664818
 C          3.8731579080       -0.6926990440        0.0557046900
 C          5.1140508944       -1.3566121929        0.0984134211
 C          6.2929990807       -0.6546131392        0.1175896441
 C          7.5696205548       -1.3890797815        0.0953947529
 C          8.5592369562       -1.0682279311       -0.8304290391
 C          9.7470508897       -1.7737313956       -0.8572113964
 C          9.9658992220       -2.8063273261        0.0397369539
 C          8.9842556182       -3.1378798375        0.9581373539
 C          7.7918602932       -2.4382290368        0.9827779199
 C          8.4568753647        1.2635498280        1.2088210202
 C          9.6150668059        2.0108418371        1.3096255531
 H         10.7642822326        3.6266289663        0.5003060301
 H          9.1065364076        4.1521376981       -1.2501928972
 H          7.0406924371        2.8247765138       -1.4300419211
 H          5.0363727543        2.5151056282        0.0696981334
 H          1.1516015374        3.3665194837       -0.0248970068
 H         -1.0824785702        4.4817975222       -0.0250801808
 H         -3.6683942116        0.7229199996        1.0704914836
 H         -5.3990646805        0.0316418330        2.6639642870
 H         -7.1722313243        1.6238471851        3.3463830354
 H         -7.1630932353        3.9235600194        2.4018056879
 H         -5.7642846330        7.0158115548       -0.5933146613
 H         -4.4451482011        7.6557201592       -2.5986409961
 H         -2.6956191786        6.1208740975       -3.4404929329
 H         -2.2255309646        4.0234578531       -2.2571350837
 H         -3.9473892039       -0.7908733444       -1.2409231894
 H         -6.0940653380        0.3313819863       -0.8224897145
 H         -7.8736463127       -0.8208424512        0.4428020650
 H         -7.5208719699       -3.1648202714        1.1919775021
 H         -5.5305631044       -7.1345656620        0.5210467899
 H         -4.0162143315       -8.5101171298       -0.8853767509
 H         -2.2477253111       -7.4075695352       -2.2131447836
 H         -1.9216356123       -4.9740816470       -2.0536914427
 H         -0.9633883590       -4.5709814102        0.0223111607
 H          1.2202968228       -3.4017514241        0.1466274651
 H          5.1126127210       -2.4361409572        0.0875322187
 H          8.3891900216       -0.2713979663       -1.5392089302
 H         10.5062385477       -1.5175054037       -1.5816232756
 H         10.8972399348       -3.3527241915        0.0204776437
 H          9.1483684876       -3.9443610168        1.6579850740
 H          7.0304221236       -2.6902664149        1.7069775714
 H          8.2689171168        0.4626629900        1.9084552326
 H         10.3340023647        1.7823315692        2.0826878657
