43
 energy: -65.154191650562 gnorm: 0.000034635061 xtb: 6.7.1 (edcfbbe)
C           -2.41154937719879        3.61805425162515       -0.00011970113345
C           -1.02755940702776        3.67168665370531       -0.00016763673404
C           -0.29673435919984        2.49671897776662       -0.00012481518371
C           -0.92566978946980        1.26153149938819       -0.00003487620124
C           -2.32153674759019        1.21140026856700        0.00001357974031
C           -3.05515305612912        2.39719104555269       -0.00002943469042
N           -2.97411812327333       -0.00009152272718        0.00010370154906
C           -2.32145501260809       -1.21153925031769        0.00011583148263
C           -3.05499110273229       -2.39737969565968        0.00016816895062
C           -2.41130496433935       -3.61819940837910        0.00018083659078
C           -1.02731140088442       -3.67173823850872        0.00014422695356
C           -0.29656587610233       -2.49672117275494        0.00009267987926
C           -0.92558477856088       -1.26157619554173        0.00007611181334
C           -0.09076830876396        0.00000631331820        0.00000822293024
C            0.87128056830837        0.00008804762827        1.17224632700423
C            0.57472524323433        0.00015167000652        2.51701199156114
C            1.62364196307496        0.00022109588125        3.42685678382677
C            2.94023070275522        0.00022517615096        2.99197610704892
C            3.24297446865936        0.00016173331312        1.63965650286451
C            2.20079053472241        0.00009387493161        0.72755553163446
C            2.20076336567939        0.00002350290434       -0.72762538108594
C            3.24291198372636       -0.00000237166906       -1.63976675632675
C            2.94011563452212       -0.00007208846114       -2.99207461702717
C            1.62351014928742       -0.00011446816439       -3.42690473879991
C            0.57462881848898       -0.00009030884236       -2.51701939603790
C            0.87123675264314       -0.00002187134608       -1.17226542467408
H           -2.99155444199219        4.52898535461339       -0.00015339068249
H           -0.51951821295702        4.62373372387306       -0.00023847550189
H            0.78309364042829        2.53373759299246       -0.00016182492702
H           -4.13536290253613        2.34744475813618        0.00000806073761
H           -3.98242903090624       -0.00012555292934        0.00012404537078
H           -4.13520429896427       -2.34770645089541        0.00019733856937
H           -2.99124836907713       -4.52916975075106        0.00021997201887
H           -0.51920559722824       -4.62375082015074        0.00015432782661
H            0.78326455035329       -2.53366731845462        0.00006141506716
H           -0.45124965802509        0.00014918852431        2.85586034123145
H            1.41177919839900        0.00027282242623        4.48606873067421
H            3.74037308959320        0.00027857528887        3.71804936220662
H            4.27016248795941        0.00016526932105        1.30576496955786
H            4.27011301175954        0.00002997195167       -1.30591530169284
H            3.74022983891522       -0.00009474734284       -3.71817887614537
H            1.41160632768246       -0.00016811973762       -4.48610842810987
H           -0.45135951463994       -0.00012401522404       -2.85582709212585
