43
 energy: -65.154172600341 gnorm: 0.000045963509 xtb: 6.7.1 (edcfbbe)
C           -2.33832085214296        3.64613412182381       -0.14187139709896
C           -0.95398871767062        3.68246324994311       -0.16391205345701
C           -0.23720075241336        2.49912461760370       -0.13669104051143
C           -0.88079877935539        1.27248133557894       -0.08912050398190
C           -2.27709271464238        1.23978744679677       -0.06846414764740
C           -2.99644831979411        2.43388093798169       -0.09551758382264
N           -2.94380400247396        0.03671327085248       -0.01966439101704
C           -2.30720255417251       -1.18229526105220       -0.07482504375424
C           -3.05595688762771       -2.35805432041556       -0.10643901186944
C           -2.42807520659950       -3.58598625915198       -0.15943458794913
C           -1.04510175540624       -3.65647140214274       -0.18419354734462
C           -0.29917631573887       -2.49139722080817       -0.15227450212141
C           -0.91217197559692       -1.24948986916213       -0.09735752449016
C           -0.06280681015986        0.00085529892723       -0.03774335699243
C            0.80204036586376       -0.01469275018700        1.20908204772648
C            0.39797747387580       -0.01877380065755        2.52548087654333
C            1.37018836903269       -0.03545044444736        3.51665663135831
C            2.71740374616384       -0.04733623484890        3.18894799231077
C            3.12794555688484       -0.04323391641292        1.86539176650292
C            2.16263076444180       -0.02716074583026        0.87244762211255
C            2.27943644165054       -0.02164391814416       -0.57801030301355
C            3.39153771336860       -0.02880657782600       -1.40340754819307
C            3.19849943329873       -0.02164186496754       -2.77572494175032
C            1.92114965986768       -0.00775077860703       -3.31492314408594
C            0.80248735905144       -0.00005734910423       -2.49227225756721
C            0.98968700435091       -0.00694342325721       -1.12790191049798
H           -2.90730665185597        4.56377565854100       -0.16152528573554
H           -0.43457604536841        4.62765810788644       -0.20032615580636
H            0.84288017113192        2.52313120408822       -0.15103996740795
H           -4.07707043294347        2.39748723647339       -0.07925632031029
H           -3.95209266801385        0.04927349488704       -0.02715716414940
H           -4.13532151773416       -2.29502029879064       -0.08811675326823
H           -3.01964445380210       -4.48916610083709       -0.18203328388876
H           -0.54932805951251       -4.61405870725603       -0.22596571761380
H            0.77997718725787       -2.54191084363731       -0.16827033027154
H           -0.65187517817792       -0.00969181238591        2.78077607381186
H            1.07376640915248       -0.03948127763015        4.55538330383532
H            3.45647142662676       -0.06035799409248        3.97699311569927
H            4.17862763966372       -0.05290603365292        1.61526453314408
H            4.38847825478167       -0.03962141825390       -0.98798361030114
H            4.05441060174364       -0.02698867733416       -3.43512237665468
H            1.79509899136767       -0.00272209735439       -4.38771577024016
H           -0.19286783467018        0.01102512151164       -2.91244918217537
