43
 energy: -65.048147213006 gnorm: 0.000033536314 xtb: 6.7.1 (edcfbbe)
C           -2.35833551429327        3.64478656998125       -0.13303904880464
C           -0.97259351257665        3.68013481054274       -0.15765126635880
C           -0.25359715806412        2.49802329843751       -0.13666356412147
C           -0.89578788925771        1.27005164864770       -0.09317701431177
C           -2.29440557886181        1.23956289273123       -0.07135977670641
C           -3.01672956579244        2.43311216057365       -0.09104254188961
N           -2.95899804582555        0.03661852647008       -0.03247422484682
C           -2.32411639863037       -1.18198809483570       -0.07922327542412
C           -3.07550497565479       -2.35731942871482       -0.10582798404595
C           -2.44704164102312       -3.58448690818604       -0.15573740210054
C           -1.06259447485073       -3.65365056861881       -0.18168948748808
C           -0.31480968390375       -2.48968371094835       -0.15379949470982
C           -0.92666728484575       -1.24663546871760       -0.10203703925810
C           -0.07830004509359        0.00126393502467       -0.04471986626439
C            0.78630789784777       -0.01404346787455        1.20568199125228
C            0.39714777582822       -0.01608660773162        2.50522334198235
C            1.38079873618011       -0.03191233911069        3.51531687008404
C            2.75183917053600       -0.04535077875910        3.17726405077634
C            3.17063974967723       -0.04370780563177        1.88183432510963
C            2.19103245283552       -0.02810560967372        0.83485427258147
C            2.30368806341967       -0.02387388269357       -0.54152751148683
C            3.44075274140140       -0.03274108623684       -1.41507845983934
C            3.23812607854029       -0.02535822462108       -2.76170994313428
C            1.94073467108525       -0.00938300758267       -3.31795512905124
C            0.80546014730156       -0.00023842347333       -2.48094107961109
C            0.97758690606600       -0.00707801559954       -1.13539795539398
H           -2.92617517855259        4.56301371508395       -0.14741467129802
H           -0.45461635294555        4.62614638485176       -0.19119304176019
H            0.82593881151965        2.52177485698224       -0.15276497939678
H           -4.09723484512759        2.39601831604135       -0.07367548915571
H           -3.96819245192404        0.04899069615462       -0.02891033967864
H           -4.15476518913978       -2.29385044110118       -0.08739366726688
H           -3.03723858495592       -4.48841091092867       -0.17520656867056
H           -0.56801034067937       -4.61186108459388       -0.22146054517465
H            0.76381793465100       -2.53974918380418       -0.17073215244151
H           -0.64985545012785       -0.00584535782433        2.77509039496092
H            1.08528061215113       -0.03375461464740        4.55222748556846
H            3.47744606818888       -0.05722628328527        3.97860539353473
H            4.21918542715870       -0.05404503450217        1.62644561275034
H            4.43379711798770       -0.04495152737961       -0.99264892852415
H            4.08460967559666       -0.03175760808488       -3.43420160885781
H            1.81762402166875       -0.00392051646371       -4.38907320292674
H           -0.18377815685139        0.01219205939257       -2.91710699977854
