  53
        -90.70034839
 O          4.1545776814       -1.1544201202        1.9427610705
 C          3.3703321487       -0.6554864101        1.1628433352
 C          1.9080213527       -0.7457503624        1.3266783702
 C          1.3852017720       -1.4072563671        2.4184205123
 C          0.0022701728       -1.5007491162        2.5913521977
 C         -0.8526980584       -0.9494102125        1.6723099028
 C         -0.3551262949       -0.2749559095        0.5388334250
 C         -1.1997632235        0.3175545824       -0.4387698491
 N         -2.6018540799        0.1952415154       -0.2918660185
 C         -3.3603279228        1.3376152795       -0.0256966972
 C         -2.7638648415        2.5994077570       -0.0009944056
 C         -3.5003579445        3.7444983869        0.2436426116
 C         -4.8614787220        3.6670571914        0.4705071518
 C         -5.4646618211        2.4228931826        0.4922148624
 C         -4.7254695718        1.2723414738        0.2685463526
 S         -5.5892868368       -0.2586141987        0.4823617026
 C         -4.4788140689       -1.3879760837       -0.3053403943
 C         -4.9815089605       -2.6408127320       -0.6192592271
 C         -4.1760892958       -3.5973688522       -1.2093698902
 C         -2.8646943411       -3.2781923076       -1.5096033060
 C         -2.3665170369       -2.0222871612       -1.2154311914
 C         -3.1533503797       -1.0541454140       -0.5879276949
 C         -0.6567403849        0.9871865649       -1.5155473576
 C          0.7240939920        1.0926075760       -1.6664993418
 C          1.5753342904        0.5243349324       -0.7401189784
 C          1.0485748149       -0.1642013457        0.3719041640
 C          3.0308378046        0.6436671774       -0.9231473577
 O          3.5342398452        1.2414711166       -1.8518904868
 N          3.8174118182        0.0342439423        0.0447538977
 C          5.2394966322        0.1313705127       -0.1272953386
 C          5.8495297561       -0.5430947738       -1.1724874908
 C          7.2197528577       -0.4454082307       -1.3368431897
 C          7.9734763637        0.3143366520       -0.4585110515
 C          7.3569883440        0.9826465146        0.5856575733
 C          5.9862906259        0.8970073122        0.7532461756
 H          2.0659319317       -1.8450997945        3.1328484567
 H         -0.3911972660       -2.0121463943        3.4564450465
 H         -1.9204194241       -1.0253099309        1.8114330223
 H         -1.7016024705        2.6907380318       -0.1589286430
 H         -2.9972055068        4.6990683012        0.2558298511
 H         -5.4451801453        4.5557237626        0.6491841764
 H         -6.5181965802        2.3230620476        0.7041671475
 H         -6.0120417885       -2.8553850003       -0.3810754168
 H         -4.5731949170       -4.5736935928       -1.4365575751
 H         -2.2200513599       -4.0022705094       -1.9834686706
 H         -1.3465695146       -1.7877368597       -1.4766514883
 H         -1.3130869269        1.4199590768       -2.2560884737
 H          1.1484589393        1.6072303018       -2.5149913461
 H          5.2524090106       -1.1330786701       -1.8512587670
 H          7.6981497588       -0.9667438218       -2.1522594237
 H          9.0429030031        0.3861984865       -0.5881771305
 H          7.9426633138        1.5756763969        1.2717027835
 H          5.4955686452        1.4133611274        1.5643882146
  53
        -90.70033803
 O          4.1095533100       -0.6873482946        2.1734163862
 C          3.3396200886       -0.3852964724        1.2865571485
 C          1.8746801091       -0.4755688988        1.4288198216
 C          1.3310287945       -0.9373670985        2.6092104742
 C         -0.0550792451       -1.0347535129        2.7595813808
 C         -0.8927042259       -0.6716872126        1.7373177970
 C         -0.3719146343       -0.1910398194        0.5182934937
 C         -1.1973148512        0.2004892944       -0.5699169702
 N         -2.6119908638        0.1175111802       -0.4557879046
 C         -3.2687305915        1.1800527956        0.1633710942
 C         -2.5295688672        2.2323654399        0.7055220930
 C         -3.1472855824        3.3030487992        1.3273568187
 C         -4.5241295142        3.3485599696        1.4354256608
 C         -5.2741581682        2.3164724043        0.8998111929
 C         -4.6601841042        1.2512464620        0.2620927037
 S         -5.7313345425        0.0360821464       -0.4559655896
 C         -4.5943762333       -1.2833464736       -0.7797069538
 C         -5.1478444443       -2.5161605821       -1.0835960366
 C         -4.3419189758       -3.5925604808       -1.4104371994
 C         -2.9702614335       -3.4240585776       -1.4248755809
 C         -2.4131344119       -2.1988670063       -1.1038440467
 C         -3.2095244224       -1.1014892904       -0.7730294383
 C         -0.6424726095        0.6617952837       -1.7400847458
 C          0.7436106688        0.7549721575       -1.8808743293
 C          1.5769850920        0.3845737292       -0.8468489979
 C          1.0333208642       -0.0929125675        0.3639924387
 C          3.0381881730        0.4820213294       -1.0188539813
 O          3.5570567762        0.8770351476       -2.0414324056
 N          3.8059903716        0.0777493530        0.0636387471
 C          5.2316211037        0.1487162232       -0.0960482116
 C          5.9690031285       -1.0221756355       -0.1650454463
 C          7.3421855891       -0.9525777586       -0.3186350312
 C          7.9703885607        0.2779227560       -0.4098471053
 C          7.2260240806        1.4435177391       -0.3431601067
 C          5.8531039553        1.3838062345       -0.1821498833
 H          1.9973522379       -1.2214143865        3.4098136940
 H         -0.4633379211       -1.3997842386        3.6894766066
 H         -1.9629996088       -0.7494249039        1.8557341084
 H         -1.4534910864        2.2191351405        0.6321006317
 H         -2.5398538100        4.1001445980        1.7276420695
 H         -5.0135503284        4.1769735044        1.9219002526
 H         -6.3518783627        2.3292470814        0.9563119322
 H         -6.2226414631       -2.6140073647       -1.0729245559
 H         -4.7847294242       -4.5449457919       -1.6542849403
 H         -2.3208639043       -4.2463498402       -1.6835479953
 H         -1.3398065861       -2.0903609050       -1.1184885778
 H         -1.2893606438        0.9527199613       -2.5539276487
 H          1.1820136268        1.1173249701       -2.7981497470
 H          5.4690743197       -1.9764665102       -0.0937832605
 H          7.9202893478       -1.8629196076       -0.3708616927
 H          9.0416924620        0.3284096099       -0.5336328926
 H          7.7137098815        2.4038409900       -0.4148335169
 H          5.2635281887        2.2864505256       -0.1303680793
  53
        -90.70023825
 O          4.1375168161       -0.4078702601        2.2551963392
 C          3.3577059629       -0.2164332813        1.3459304079
 C          1.8945143896       -0.2947642668        1.5104481571
 C          1.3629736226       -0.6031229253        2.7453731216
 C         -0.0207512117       -0.6955110023        2.9163395419
 C         -0.8682020070       -0.4671728247        1.8633414439
 C         -0.3609326862       -0.1381144947        0.5895553559
 C         -1.1970672709        0.1057010702       -0.5333419482
 N         -2.6082386888        0.0450645116       -0.3960553472
 C         -3.2526261310        1.1212368812        0.2134487313
 C         -2.5025065300        2.1847833743        0.7188987922
 C         -3.1031794867        3.2588917122        1.3508244971
 C         -4.4767320383        3.3050620560        1.4956552282
 C         -5.2396951654        2.2763936226        0.9730773463
 C         -4.6424057981        1.2042986369        0.3295335927
 S         -5.7446187163        0.0122650778       -0.3782180061
 C         -4.6260196092       -1.2719567681       -0.8612936013
 C         -5.2034311136       -2.4549650547       -1.2940189250
 C         -4.4194528946       -3.5204713115       -1.6981414004
 C         -3.0438604752       -3.3989908182       -1.6419822485
 C         -2.4642984622       -2.2231670830       -1.2002351397
 C         -3.2378811693       -1.1251087962       -0.8189616836
 C         -0.6501085581        0.3873651128       -1.7649297320
 C          0.7329855581        0.4532747354       -1.9309858393
 C          1.5764249680        0.2351472413       -0.8611894518
 C          1.0432772880       -0.0633705200        0.4100145007
 C          3.0345230388        0.3131040113       -1.0567082058
 O          3.5468252338        0.5696862264       -2.1262842568
 N          3.8110567252        0.0810733881        0.0690267196
 C          5.2352042499        0.1488514200       -0.1085661127
 C          5.8868965089       -0.8638831068       -0.7928708639
 C          7.2579322991       -0.7944646322       -0.9652170490
 C          7.9698469399        0.2763333861       -0.4521136268
 C          7.3112616776        1.2832765160        0.2330326516
 C          5.9396584580        1.2249601705        0.4053922777
 H          2.0376637838       -0.7750845722        3.5705599828
 H         -0.4200136910       -0.9484939784        3.8865675842
 H         -1.9368389785       -0.5378024472        1.9994046926
 H         -1.4298974382        2.1784220305        0.6086828888
 H         -2.4855145282        4.0599859067        1.7266933441
 H         -4.9539112399        4.1343278759        1.9927250195
 H         -6.3162613642        2.2955830548        1.0455703636
 H         -6.2805909091       -2.5226019659       -1.3146317221
 H         -4.8813568415       -4.4315276910       -2.0432990860
 H         -2.4088025774       -4.2199050804       -1.9374433721
 H         -1.3888724018       -2.1553940950       -1.1515485145
 H         -1.3043392640        0.5588975380       -2.6065520957
 H          1.1632048949        0.6820689413       -2.8939300410
 H          5.3212491465       -1.6940416438       -1.1884916647
 H          7.7693359998       -1.5809848972       -1.4992649086
 H          9.0400191675        0.3262217349       -0.5861297739
 H          7.8647988566        2.1189071778        0.6334938440
 H          5.4155147595        2.0040298584        0.9380308346
  53
        -90.70021747
 O          4.0973897511       -0.8764245979        2.0946857016
 C          3.3331617540       -0.4902187684        1.2358564232
 C          1.8675500553       -0.5719504760        1.3732857430
 C          1.3201740870       -1.1232647303        2.5129516819
 C         -0.0666688232       -1.2040556602        2.6637021147
 C         -0.9009606382       -0.7468524559        1.6770505291
 C         -0.3760955941       -0.1851944946        0.4950374881
 C         -1.1983867963        0.2936033262       -0.5609186150
 N         -2.6118057119        0.1760211042       -0.4722940194
 C         -3.3065339158        1.2328953750        0.1157434830
 C         -2.6029355845        2.3017270333        0.6725416753
 C         -3.2591724104        3.3663508238        1.2642934904
 C         -4.6394652047        3.3846132821        1.3343320806
 C         -5.3539536785        2.3297570258        0.7949082949
 C         -4.7008573044        1.2728479295        0.1826792558
 S         -5.7185833753        0.0159524534       -0.5389658294
 C         -4.5471646705       -1.3004662699       -0.7221366191
 C         -5.0658132773       -2.5672543552       -0.9336082939
 C         -4.2293214135       -3.6425147801       -1.1750877320
 C         -2.8637919922       -3.4337737710       -1.2135123694
 C         -2.3414850189       -2.1732583426       -0.9847432437
 C         -3.1675998954       -1.0809767830       -0.7157666580
 C         -0.6390414677        0.8647086333       -1.6795112414
 C          0.7477999788        0.9613127765       -1.8105695764
 C          1.5785609985        0.4841163685       -0.8187629039
 C          1.0298254620       -0.0886964119        0.3475773243
 C          3.0406357148        0.5631579203       -0.9917873635
 O          3.5621327541        1.0160376141       -1.9888229375
 N          3.8059709461        0.0696340078        0.0560840534
 C          5.2318407852        0.1304130683       -0.0993526935
 C          5.9598562613       -1.0454969770       -0.1870078575
 C          7.3347562695       -0.9855250787       -0.3270648548
 C          7.9751114709        0.2404815727       -0.3892079883
 C          7.2403228514        1.4109402131       -0.3076795305
 C          5.8656986478        1.3609030570       -0.1574044034
 H          1.9846406882       -1.4864760667        3.2824220164
 H         -0.4786557792       -1.6315897805        3.5648137467
 H         -1.9718741014       -0.8120902996        1.7968927154
 H         -1.5246013423        2.3025052491        0.6363324623
 H         -2.6802255264        4.1790155249        1.6752050077
 H         -5.1586495114        4.2074204992        1.7991286336
 H         -6.4326438908        2.3178387904        0.8279497487
 H         -6.1376277638       -2.6927863182       -0.9217257492
 H         -4.6438777275       -4.6234195147       -1.3436797847
 H         -2.1909042111       -4.2514434927       -1.4212563032
 H         -1.2728273649       -2.0361300360       -1.0276846645
 H         -1.2829546839        1.2310071111       -2.4648077619
 H          1.1888294886        1.3982159390       -2.6934661370
 H          5.4517116346       -1.9966333076       -0.1387032439
 H          7.9047981900       -1.9000834801       -0.3906846169
 H          9.0479940225        0.2835143489       -0.5014881302
 H          7.7366660136        2.3683509879       -0.3564596657
 H          5.2853033254        2.2684642769       -0.0898906108
  53
        -90.70013509
 O          4.1408310182       -0.9496630256        2.0500194859
 C          3.3567142818       -0.5434438891        1.2183838772
 C          1.8934109445       -0.6435190041        1.3695470970
 C          1.3620694565       -1.2130250537        2.5076904155
 C         -0.0225469487       -1.3076910736        2.6709186163
 C         -0.8702569272       -0.8473233214        1.6971996275
 C         -0.3622274249       -0.2675977240        0.5165661738
 C         -1.1995765601        0.2259554993       -0.5200063697
 N         -2.6112698199        0.1258520461       -0.4017778344
 C         -3.2879333227        1.2384692133        0.0961062605
 C         -2.5608248639        2.3300813849        0.5740381293
 C         -3.1910347801        3.4591684685        1.0657501121
 C         -4.5708020353        3.5235881701        1.1122251470
 C         -5.3085159637        2.4422419570        0.6648450728
 C         -4.6808174515        1.3156524426        0.1585117644
 S         -5.7388053622        0.0146355644       -0.4099524131
 C         -4.5831246413       -1.3059976230       -0.6509655085
 C         -5.1268002864       -2.5583012884       -0.8867391821
 C         -4.3142418813       -3.6432139011       -1.1632750635
 C         -2.9456121356       -3.4588415008       -1.2139097329
 C         -2.3983077540       -2.2127442303       -0.9654805792
 C         -3.1998684158       -1.1112738531       -0.6608658414
 C         -0.6564480756        0.8135503733       -1.6392514173
 C          0.7271067344        0.9225283060       -1.7843282219
 C          1.5722229019        0.4429020378       -0.8055566365
 C          1.0416780065       -0.1556791263        0.3566492185
 C          3.0309226825        0.5622959157       -0.9791016569
 O          3.5458589831        1.0657761634       -1.9554482458
 N          3.8058553372        0.0569871556        0.0525238698
 C          5.2317755821        0.1658208284       -0.1028592610
 C          5.9458061604       -0.8993307216       -0.6253450535
 C          7.3176646373       -0.7912477458       -0.7700103682
 C          7.9664913065        0.3730657897       -0.3955947466
 C          7.2448984998        1.4337440241        0.1249393807
 C          5.8728673911        1.3338933996        0.2740672116
 H          2.0373571687       -1.5783781205        3.2666834992
 H         -0.4220368652       -1.7478315372        3.5716038571
 H         -1.9394957688       -0.9234707564        1.8255342944
 H         -1.4828371426        2.2961619641        0.5576464185
 H         -2.5922334371        4.2856298665        1.4160464189
 H         -5.0713395360        4.3989725514        1.4939372735
 H         -6.3873826683        2.4596490305        0.6933873535
 H         -6.2006283546       -2.6644487245       -0.8630030498
 H         -4.7497198532       -4.6118175796       -1.3493070542
 H         -2.2903523366       -4.2835351695       -1.4482237679
 H         -1.3280197023       -2.0924351404       -1.0196788940
 H         -1.3122656971        1.1901084146       -2.4098392363
 H          1.1557719348        1.3769211195       -2.6644313481
 H          5.4281452047       -1.8023708856       -0.9129493386
 H          7.8788311956       -1.6191253503       -1.1763879206
 H          9.0370450061        0.4538845174       -0.5092599173
 H          7.7494354229        2.3421842594        0.4175731076
 H          5.2989067233        2.1541109625        0.6789265585
  53
        -90.69992787
 O          4.0843580361       -0.4540509677        2.2416452568
 C          3.3251063059       -0.1918016360        1.3331194138
 C          1.8589849656       -0.2112121960        1.4876101733
 C          1.3089262821       -0.5286587633        2.7119851991
 C         -0.0779280824       -0.5963381051        2.8674726061
 C         -0.9095054523       -0.3510042650        1.8058785899
 C         -0.3827349191       -0.0108270268        0.5430442937
 C         -1.2006153822        0.2449289509       -0.5907531672
 N         -2.6123444658        0.1275494044       -0.4852869180
 C         -3.3038672915        1.1539254256        0.1569565696
 C         -2.6076227951        2.2669950690        0.6312827393
 C         -3.2531898971        3.2938796311        1.2965393846
 C         -4.6175084490        3.2383445978        1.5100123585
 C         -5.3295897901        2.1585821024        1.0190819688
 C         -4.6889154255        1.1362262602        0.3380686069
 S         -5.7293270240       -0.1298547441       -0.3335050020
 C         -4.5400150403       -1.3568442860       -0.7981505906
 C         -5.0452715903       -2.5989301268       -1.1470348480
 C         -4.2025841003       -3.6206926934       -1.5463565520
 C         -2.8401712002       -3.3916704185       -1.5750302996
 C         -2.3313284906       -2.1572224813       -1.2129510472
 C         -3.1664434142       -1.1062393338       -0.8292098669
 C         -0.6360723558        0.5732425592       -1.8017935192
 C          0.7501109403        0.6556128774       -1.9413283402
 C          1.5770571282        0.3957487011       -0.8683092581
 C          1.0238037715        0.0614281789        0.3851323081
 C          3.0391036766        0.4588903722       -1.0435551137
 O          3.5637153558        0.7830953131       -2.0881045617
 N          3.8021015216        0.1190918958        0.0660948094
 C          5.2255314882        0.0854815310       -0.1129395410
 C          5.7766714864       -0.8367277906       -0.9888151598
 C          7.1490760831       -0.8820656677       -1.1551488766
 C          7.9649451790       -0.0199639833       -0.4423467943
 C          7.4074927555        0.8967163657        0.4326041556
 C          6.0349631451        0.9575053105        0.5968896981
 H          1.9714579772       -0.7277883132        3.5407726806
 H         -0.4924959162       -0.8485591110        3.8313509592
 H         -1.9800525395       -0.4127929029        1.9298300475
 H         -1.5433360230        2.3348883917        0.4697029122
 H         -2.6782242825        4.1371804307        1.6466926513
 H         -5.1279830352        4.0277672082        2.0379035142
 H         -6.3996008030        2.0982495556        1.1468519895
 H         -6.1136030990       -2.7475738793       -1.1081253820
 H         -4.6089701069       -4.5792433438       -1.8264992436
 H         -2.1594971555       -4.1729258023       -1.8763182010
 H         -1.2634984953       -2.0070986325       -1.2325578302
 H         -1.2767620041        0.7604288727       -2.6503616902
 H          1.1943396905        0.9175268803       -2.8894500733
 H          5.1328571035       -1.5081161577       -1.5366496544
 H          7.5802829787       -1.5975690842       -1.8389264642
 H          9.0362791889       -0.0634173133       -0.5685106687
 H          8.0413850967        1.5695282353        0.9901005527
 H          5.5924943325        1.6685986846        1.2773726133
  53
        -90.69936468
 O          4.1269527847       -1.2251275831        1.9382482268
 C          3.3496796250       -0.6448110221        1.2090997400
 C          1.8895718241       -0.6692529497        1.4064522152
 C          1.3536632147       -1.3972140964        2.4486741992
 C         -0.0301473854       -1.4628412167        2.6245349335
 C         -0.8736911859       -0.8349812146        1.7443286026
 C         -0.3626133959       -0.0902218111        0.6627998918
 C         -1.1974330986        0.5597820840       -0.2889123680
 N         -2.5883841174        0.3222100475       -0.2286716859
 C         -3.4780988941        1.3742085398       -0.0012965254
 C         -3.0270878549        2.6929746097        0.0705244032
 C         -3.9019187243        3.7467726932        0.2650240460
 C         -5.2591431501        3.5171097409        0.3926674360
 C         -5.7200481767        2.2136298439        0.3789803499
 C         -4.8429778605        1.1543804021        0.2092942823
 S         -5.5331743611       -0.4659498060        0.3962869232
 C         -4.2852794720       -1.4483593108       -0.3808615506
 C         -4.6397474348       -2.7354756635       -0.7544650028
 C         -3.7184359746       -3.5758631076       -1.3511670576
 C         -2.4449391394       -3.1016573021       -1.6071615304
 C         -2.0957777708       -1.8115503317       -1.2536993297
 C         -2.9961369537       -0.9638515930       -0.6045522761
 C         -0.6416037219        1.3396862163       -1.2823776756
 C          0.7407882432        1.4661886557       -1.3974953284
 C          1.5823655049        0.7947229665       -0.5328621007
 C          1.0424820321        0.0168884331        0.5120517930
 C          3.0370817982        0.8532145370       -0.7436998395
 O          3.5530438999        1.5048217182       -1.6284134972
 N          3.8045273503        0.0774149575        0.1148382511
 C          5.2093456271       -0.0007464006       -0.1695065955
 C          5.7277380141       -1.1957299429       -0.6435778174
 C          7.0755794585       -1.2840358185       -0.9399307213
 C          7.8970351755       -0.1825214757       -0.7696033151
 C          7.3718758444        1.0077663133       -0.2966043198
 C          6.0253290541        1.1034865834        0.0087809634
 H          2.0248337161       -1.9112565753        3.1200324789
 H         -0.4343673644       -2.0209902710        3.4550312797
 H         -1.9426964895       -0.9006628307        1.8788227411
 H         -1.9722650714        2.9006793425       -0.0069465461
 H         -3.5111226168        4.7513580561        0.3146784762
 H         -5.9494086010        4.3344906157        0.5261540510
 H         -6.7671668946        1.9954120908        0.5230685977
 H         -5.6468413103       -3.0691259144       -0.5568516530
 H         -3.9979004588       -4.5815213976       -1.6214162259
 H         -1.7141185620       -3.7298388785       -2.0925806458
 H         -1.1039551963       -1.4571778174       -1.4851542468
 H         -1.2843018838        1.8183802237       -2.0062067698
 H          1.1750808509        2.0556184613       -2.1905142231
 H          5.0762116435       -2.0469425324       -0.7746461398
 H          7.4817158844       -2.2139161391       -1.3085977797
 H          8.9478203060       -0.2524325839       -1.0073140593
 H          8.0116956628        1.8668885412       -0.1629714269
 H          5.6061653369        2.0275702063        0.3761608074
  53
        -90.69925307
 O          4.1269230079       -1.1236258238        1.9940662822
 C          3.3537261486       -0.5610251910        1.2474337502
 C          1.8947118615       -0.5636594765        1.4566035168
 C          1.3632544063       -1.2225571652        2.5460811050
 C         -0.0200807834       -1.2814462359        2.7296970872
 C         -0.8682700596       -0.7177413629        1.8114318831
 C         -0.3614235113       -0.0414192938        0.6839523813
 C         -1.1996839415        0.5456552146       -0.3035140696
 N         -2.5900983112        0.2987208014       -0.2327555324
 C         -3.4804061763        1.3528523162       -0.0222434490
 C         -3.0226446490        2.6695931684        0.0436001616
 C         -3.8926312725        3.7287772407        0.2309648382
 C         -5.2512009847        3.5059768694        0.3565441227
 C         -5.7195490228        2.2050059605        0.3411084621
 C         -4.8478698976        1.1405130186        0.1769027284
 S         -5.5514176263       -0.4759931490        0.3460875837
 C         -4.2866715382       -1.4708809655       -0.3875571957
 C         -4.6374322263       -2.7624543141       -0.7489102266
 C         -3.7054861955       -3.6175188731       -1.3074101563
 C         -2.4220607713       -3.1552572106       -1.5326129611
 C         -2.0756747636       -1.8608722378       -1.1915729206
 C         -2.9901580014       -0.9949592019       -0.5877289350
 C         -0.6509089144        1.2729517950       -1.3392686723
 C          0.7311036438        1.3955925279       -1.4669958011
 C          1.5767771070        0.7737130339       -0.5698557593
 C          1.0427742533        0.0609617245        0.5229574277
 C          3.0313299757        0.8247319425       -0.7850093539
 O          3.5446255319        1.4461505014       -1.6926372083
 N          3.8049796971        0.0967510445        0.1103996923
 C          5.2054622280       -0.0042464676       -0.1840376093
 C          5.5987754448       -0.6738378527       -1.3328613002
 C          6.9449098739       -0.7963735613       -1.6241850760
 C          7.8920199845       -0.2625172042       -0.7667940385
 C          7.4922123155        0.4021626085        0.3798362891
 C          6.1467336047        0.5389551582        0.6743500776
 H          2.0375902117       -1.6899637032        3.2477019909
 H         -0.4197093516       -1.7841072337        3.5970392433
 H         -1.9371137044       -0.7785644336        1.9502408839
 H         -1.9661604098        2.8701173880       -0.0338725365
 H         -3.4969932715        4.7315797145        0.2789187252
 H         -5.9376944043        4.3270097757        0.4870229055
 H         -6.7691133630        1.9929642103        0.4766515872
 H         -5.6515975038       -3.0874381663       -0.5738555706
 H         -3.9838400818       -4.6254004273       -1.5704680702
 H         -1.6802954814       -3.7961637098       -1.9836156434
 H         -1.0747399249       -1.5180107997       -1.3994431868
 H         -1.2992715731        1.7138360416       -2.0819649736
 H          1.1610548884        1.9417439834       -2.2927100721
 H          4.8520027173       -1.0901413611       -1.9923001774
 H          7.2522947259       -1.3151321711       -2.5197250516
 H          8.9426198973       -0.3666161194       -0.9925332951
 H          8.2294815610        0.8169748833        1.0503694327
 H          5.8272077169        1.0525386588        1.5678613072
