  53
  -90.4083916530000       0.273003759775042      !
 O          4.1721542127        0.8797186790        2.0470804458
 C          3.3785734324        0.5211187017        1.2025964503
 C          1.9176275369        0.5971340328        1.3869606906
 C          1.4044378603        1.0911402298        2.5681696266
 C          0.0227552583        1.1573054256        2.7657420055
 C         -0.8405247987        0.7457718348        1.7836504542
 C         -0.3519331160        0.2462851771        0.5589366947
 C         -1.2049696578       -0.1942629351       -0.4887805611
 N         -2.6140858362       -0.1215094926       -0.3370317350
 C         -3.2231693094        1.1252287977       -0.4768112926
 C         -2.4406856507        2.2601192801       -0.6982457968
 C         -3.0056690816        3.5171370683       -0.8188560040
 C         -4.3747636199        3.6794904148       -0.7241153608
 C         -5.1696869144        2.5630427308       -0.5370307636
 C         -4.6082750029        1.3009031922       -0.4269795924
 S         -5.7494725753       -0.0467464169       -0.2919304140
 C         -4.6682709964       -1.4007057507        0.0709042742
 C         -5.2792037510       -2.5942050326        0.4208821175
 C         -4.5262589455       -3.7153583065        0.7197631352
 C         -3.1475496861       -3.6239745220        0.6885277891
 C         -2.5344396508       -2.4310231173        0.3500649078
 C         -3.2767586333       -1.2973484968        0.0134998515
 C         -0.6768687743       -0.7083039860       -1.6516125310
 C          0.7037192143       -0.7929383019       -1.8296065814
 C          1.5635420349       -0.3631462909       -0.8399513399
 C          1.0496799329        0.1602282081        0.3647659155
 C          3.0187692646       -0.4575822359       -1.0491172727
 O          3.5149326543       -0.8954160583       -2.0661739749
 N          3.8125371936       -0.0041219246       -0.0058396877
 C          5.2339703156       -0.0952327075       -0.1944025494
 C          5.8502081252       -1.3350308413       -0.1524673099
 C          7.2186917523       -1.4201891288       -0.3375670085
 C          7.9632935888       -0.2738286040       -0.5569562198
 C          7.3400595396        0.9619884054       -0.5947725735
 C          5.9712447461        1.0561356513       -0.4162049788
 H          2.0916763460        1.4189677263        3.3336390081
 H         -0.3623249601        1.5362393080        3.7000201791
 H         -1.9074888001        0.7998256118        1.9390619623
 H         -1.3708697022        2.1590120504       -0.7874054303
 H         -2.3637458747        4.3675882130       -0.9897558178
 H         -4.8241993615        4.6557755792       -0.8097597406
 H         -6.2439395653        2.6523963830       -0.4858895963
 H         -6.3577537005       -2.6298017565        0.4480067141
 H         -5.0142088119       -4.6410117383        0.9797313311
 H         -2.5360969984       -4.4792956995        0.9315243508
 H         -1.4570589107       -2.3787252459        0.3455427181
 H         -1.3439939892       -1.0467537781       -2.4301785709
 H          1.1193750087       -1.1880078247       -2.7438534489
 H          5.2592685868       -2.2220933035        0.0194239441
 H          7.7025063422       -2.3847362254       -0.3071149189
 H          9.0313926536       -0.3434685754       -0.6984922009
 H          7.9191069517        1.8566717552       -0.7659361684
 H          5.4745092050        2.0142048553       -0.4433569618
  53
  -90.4082698532000       0.239990093908157      !
 O          4.1671125947        0.0923223802        2.2347642611
 C          3.3782130022        0.0583567311        1.3134980976
 C          1.9178804733        0.1243088268        1.5043425106
 C          1.4030484967        0.2485438686        2.7780556271
 C          0.0221745998        0.3149520622        2.9778637916
 C         -0.8390844312        0.2433757823        1.9135829450
 C         -0.3500484095        0.1057366372        0.5986173836
 C         -1.2012762682        0.0326020839       -0.5372747132
 N         -2.6024332967        0.0609574384       -0.3414305233
 C         -3.3310085159        1.1621589078       -0.7971497007
 C         -2.7075113717        2.1783154434       -1.5232184805
 C         -3.4144877064        3.2683879351       -1.9980114214
 C         -4.7721416528        3.3789035153       -1.7641813597
 C         -5.4010543729        2.4045206265       -1.0109935125
 C         -4.6910770663        1.3223150493       -0.5160537877
 S         -5.5827649536        0.2370870853        0.5623225475
 C         -4.5124840777       -1.1710786263        0.5878334190
 C         -5.0478411010       -2.3531229038        1.0746712139
 C         -4.2748663517       -3.4965069788        1.1590153660
 C         -2.9632497166       -3.4536191742        0.7235926559
 C         -2.4327377288       -2.2806012579        0.2190120431
 C         -3.1861409503       -1.1063679932        0.1579742185
 C         -0.6657780834       -0.0768388112       -1.8037639483
 C          0.7136919208       -0.1206041818       -1.9928426817
 C          1.5710116271       -0.0582699236       -0.9126381723
 C          1.0520726469        0.0562025739        0.3934060853
 C          3.0247735601       -0.1118620667       -1.1360977357
 O          3.5221001682       -0.1909336864       -2.2405255911
 N          3.8174102066       -0.0564206558        0.0021384416
 C          5.2375154675       -0.1205074446       -0.1992409513
 C          5.8120846616       -1.2985935023       -0.6480771707
 C          7.1805158621       -1.3561946968       -0.8433845089
 C          7.9676006504       -0.2470165198       -0.5845408050
 C          7.3864281451        0.9256829074       -0.1328791611
 C          6.0178429461        0.9949305127        0.0579389966
 H          2.0884655258        0.2962461793        3.6107834883
 H         -0.3647009987        0.4231111019        3.9795415502
 H         -1.9051839919        0.2949505094        2.0745695860
 H         -1.6469166530        2.1282748233       -1.7084765879
 H         -2.8910354364        4.0317975088       -2.5527349286
 H         -5.3331542619        4.2186375458       -2.1416369410
 H         -6.4520264558        2.4792720278       -0.7771229840
 H         -6.0777334639       -2.3562312251        1.3972898039
 H         -4.6970744384       -4.4072292649        1.5525155145
 H         -2.3437241255       -4.3361414133        0.7653627281
 H         -1.4134621945       -2.2746281651       -0.1339533138
 H         -1.3274512680       -0.1447270564       -2.6546833086
 H          1.1318520596       -0.2172714365       -2.9831246516
 H          5.1891280341       -2.1576442687       -0.8463735373
 H          7.6313472906       -2.2714408985       -1.1964191271
 H          9.0355079618       -0.2963289546       -0.7355143470
 H          7.9981538733        1.7918101524        0.0695384046
 H          5.5545004942        1.9039923021        0.4105027039
  53
  -90.4076810404000       0.128704487198147      !
 O          4.1364271204        0.5962726842        2.1491962305
 C          3.3556004077        0.3438371336        1.2563705399
 C          1.8921938900        0.3970575465        1.4297079978
 C          1.3624293006        0.7306433556        2.6586125546
 C         -0.0221714572        0.7805410447        2.8424113103
 C         -0.8720516576        0.5001660961        1.8043606782
 C         -0.3655045166        0.1598792420        0.5331884561
 C         -1.2038700895       -0.1364439742       -0.5750165323
 N         -2.6174404497       -0.0952749206       -0.4289241727
 C         -3.2384238318        1.1472526671       -0.5479386807
 C         -2.4658812102        2.2954296833       -0.7282636616
 C         -3.0476283068        3.5449738509       -0.8500212537
 C         -4.4207167489        3.6855374593       -0.7842994465
 C         -5.2035516563        2.5578880887       -0.6104978724
 C         -4.6257456671        1.3035666330       -0.5047942509
 S         -5.7371928166       -0.0698234432       -0.3703315411
 C         -4.6358505229       -1.3613810674        0.1369145598
 C         -5.2219194599       -2.5215780475        0.6154251968
 C         -4.4462545920       -3.6084285847        0.9788501146
 C         -3.0718292907       -3.5206644606        0.8635317667
 C         -2.4819247885       -2.3567036276        0.4033643971
 C         -3.2475235232       -1.2508160872        0.0308264383
 C         -0.6627251488       -0.4647668268       -1.7953902495
 C          0.7219516476       -0.5124588956       -1.9689590465
 C          1.5676599049       -0.2310055887       -0.9170665185
 C          1.0381526175        0.1077176752        0.3457040560
 C          3.0268904446       -0.2957324141       -1.1186920698
 O          3.5335985494       -0.5902096262       -2.1805099666
 N          3.8072920043       -0.0113894499       -0.0074454552
 C          5.2306381638       -0.0893004263       -0.1834420344
 C          5.9409095726       -1.0995863252        0.4445050509
 C          7.3119229165       -1.1734948981        0.2744355682
 C          7.9647212259       -0.2488629913       -0.5230607243
 C          7.2473091570        0.7559845060       -1.1497494269
 C          5.8769213402        0.8422396439       -0.9794652264
 H          2.0383525082        0.9501593203        3.4713707396
 H         -0.4195258492        1.0417497831        3.8111771181
 H         -1.9411920473        0.5379893154        1.9496397523
 H         -1.3920324707        2.2101313537       -0.7837814227
 H         -2.4151403431        4.4072088328       -0.9951872430
 H         -4.8821947917        4.6558090033       -0.8741348144
 H         -6.2793912725        2.6329513592       -0.5684149884
 H         -6.2981563322       -2.5630381089        0.6852232126
 H         -4.9144255728       -4.5095907839        1.3412079738
 H         -2.4457436417       -4.3571958062        1.1337604797
 H         -1.4070048569       -2.3088960871        0.3241038282
 H         -1.3193376924       -0.6870407877       -2.6229745783
 H          1.1496321117       -0.7693262749       -2.9260376621
 H          5.4219224016       -1.8159857955        1.0634576354
 H          7.8689751047       -1.9582799052        0.7637812684
 H          9.0341707553       -0.3119305787       -0.6567172845
 H          7.7541813050        1.4773873831       -1.7725285040
 H          5.3082262153        1.6208667551       -1.4646181226
  53
  -90.4074301346000       9.869277639746343E-002 !
 O          4.1206769285        0.8313639325        2.0596048088
 C          3.3479558780        0.5310560303        1.1745203772
 C          1.8853766251        0.6497527546        1.3177997045
 C          1.3549398697        1.1301600486        2.4968996845
 C         -0.0294077768        1.2080958271        2.6690317951
 C         -0.8780410684        0.8061802447        1.6705445036
 C         -0.3712206736        0.3221937481        0.4470869579
 C         -1.2074812544       -0.1142011661       -0.6159577139
 N         -2.6188093642       -0.1051213803       -0.4548657612
 C         -3.2746284708        1.1225975857       -0.5369370272
 C         -2.5450500824        2.2804006362       -0.8123879601
 C         -3.1544330802        3.5207121876       -0.8763786515
 C         -4.5147627165        3.6419178991       -0.6646419812
 C         -5.2598201599        2.5017221779       -0.4221493961
 C         -4.6555676429        1.2559412890       -0.3735368325
 S         -5.7365969345       -0.1313689639       -0.1657522112
 C         -4.5836718852       -1.4314038724        0.1756199041
 C         -5.1224042756       -2.6252784033        0.6275188509
 C         -4.3102151035       -3.7107844188        0.9024810496
 C         -2.9441834987       -3.5830080161        0.7379418684
 C         -2.4017469578       -2.3876450775        0.3011878850
 C         -3.2060809438       -1.2879248075       -0.0036103631
 C         -0.6620527257       -0.5784101156       -1.7907492527
 C          0.7222747699       -0.6350681315       -1.9586367753
 C          1.5662150887       -0.2380308517       -0.9423368810
 C          1.0328475439        0.2459445711        0.2702067678
 C          3.0252040591       -0.3334899218       -1.1281239643
 O          3.5341797857       -0.7018502708       -2.1657482557
 N          3.8043147638        0.0224195174       -0.0348414534
 C          5.2225775511       -0.1522937627       -0.1665295743
 C          5.7353021832       -1.4291909212       -0.3339527753
 C          7.1025851800       -1.6043921396       -0.4482267669
 C          7.9515075618       -0.5125505482       -0.3837191446
 C          7.4323367111        0.7595224808       -0.2137571836
 C          6.0652119031        0.9460054310       -0.1102369653
 H          2.0306204573        1.4374031481        3.2808301249
 H         -0.4285856845        1.5838754267        3.5985424700
 H         -1.9467713682        0.8609399258        1.8122123872
 H         -1.4832499155        2.2086133519       -0.9880321134
 H         -2.5544302313        4.3910755711       -1.0927421625
 H         -4.9970632290        4.6055283359       -0.7004550366
 H         -6.3279024684        2.5598897247       -0.2782554037
 H         -6.1925689645       -2.6908071228        0.7515940291
 H         -4.7426601193       -4.6380556746        1.2424930932
 H         -2.2867592460       -4.4117024071        0.9512737405
 H         -1.3316409678       -2.3095455073        0.1918438315
 H         -1.3165751787       -0.9075914578       -2.5837372001
 H          1.1516409575       -0.9946223995       -2.8812625681
 H          5.0659054938       -2.2749606772       -0.3782644522
 H          7.5038956159       -2.5976747345       -0.5815531930
 H          9.0187514428       -0.6536641258       -0.4652024707
 H          8.0920518053        1.6124227281       -0.1624277834
 H          5.6524811551        1.9341198114        0.0230774584
  53
  -90.4072452112000       8.115222957732843E-002 !
 O          4.1195228752        0.3934961256        2.1952501262
 C          3.3463948021        0.2268295672        1.2758577482
 C          1.8824830963        0.2843541475        1.4408970813
 C          1.3467716572        0.5202838798        2.6897992894
 C         -0.0381126471        0.5840306550        2.8647791086
 C         -0.8823553075        0.4022219087        1.8004676579
 C         -0.3697891930        0.1505737213        0.5112636488
 C         -1.2029900112       -0.0546232280       -0.6219283361
 N         -2.6165116460       -0.0562490281       -0.4756858203
 C         -3.2759282961        1.1649257888       -0.6146834967
 C         -2.5380236934        2.3361229489       -0.7915166437
 C         -3.1587217462        3.5646121984       -0.9321896291
 C         -4.5365653681        3.6612449185       -0.8806513860
 C         -5.2846954644        2.5118604719       -0.6978666105
 C         -4.6673892122        1.2777401601       -0.5783000809
 S         -5.7267451701       -0.1330142522       -0.4238294850
 C         -4.5881757483       -1.3418688599        0.1934725353
 C         -5.1384233603       -2.4770133994        0.7654368171
 C         -4.3305943048       -3.5145841937        1.1956402604
 C         -2.9619324707       -3.4082886431        1.0369395934
 C         -2.4078093255       -2.2682193859        0.4826574799
 C         -3.2043324272       -1.2010758896        0.0647473161
 C         -0.6544526544       -0.2625395579       -1.8653733491
 C          0.7311774176       -0.3019506919       -2.0336407296
 C          1.5715627520       -0.1332278686       -0.9534343336
 C          1.0345731282        0.1009182271        0.3296839182
 C          3.0311502996       -0.2136480967       -1.1457473194
 O          3.5417847952       -0.4451733989       -2.2212879096
 N          3.8069350871       -0.0234301234       -0.0102679225
 C          5.2302984653       -0.1072941812       -0.1774892972
 C          5.9306715811       -1.1332632791        0.4367739239
 C          7.3033859244       -1.2072769023        0.2826962201
 C          7.9687865444       -0.2688303945       -0.4877380919
 C          7.2613992897        0.7493369814       -1.1037519716
 C          5.8893858916        0.8373717970       -0.9472044116
 H          2.0188483043        0.6562756948        3.5236710670
 H         -0.4407041280        0.7767514679        3.8472757432
 H         -1.9517477759        0.4511438034        1.9400390319
 H         -1.4608965700        2.2836504138       -0.8255789950
 H         -2.5539656271        4.4465308737       -1.0769002795
 H         -5.0281248048        4.6154128364       -0.9832808221
 H         -6.3624851532        2.5534610455       -0.6598516768
 H         -6.2122401364       -2.5400831401        0.8527609329
 H         -4.7697121180       -4.3960041536        1.6346490491
 H         -2.3113521955       -4.2124909972        1.3443857855
 H         -1.3375336097       -2.2138231886        0.3633751868
 H         -1.3062428256       -0.4058943847       -2.7139653573
 H          1.1633755723       -0.4772830296       -3.0069654776
 H          5.4031037050       -1.8609191878        1.0345980045
 H          7.8520208579       -2.0026694365        0.7641136701
 H          9.0398205044       -0.3313860414       -0.6081900215
 H          7.7772973734        1.4821499546       -1.7055872825
 H          5.3303302266        1.6296768522       -1.4213285234
  53
  -90.4071390294000       7.252749528846074E-002 !
 O          4.1494287308        0.1415284755        2.2433322852
 C          3.3702762583        0.1799780671        1.3142165515
 C          1.9168333053        0.3447749110        1.4953993411
 C          1.3981028601        0.4694670898        2.7677692527
 C          0.0185749027        0.5715002775        2.9608776211
 C         -0.8395547537        0.5120989735        1.8929430748
 C         -0.3459697892        0.3798627710        0.5797780200
 C         -1.1953375558        0.2983241294       -0.5579182778
 N         -2.5883636441        0.1822230082       -0.3452346128
 C         -3.4521873712        1.1845652501       -0.7893914331
 C         -2.9667368973        2.2734540267       -1.5148888750
 C         -3.8106931814        3.2656470298       -1.9808759792
 C         -5.1701154757        3.2003478467       -1.7383293500
 C         -5.6646444105        2.1541812738       -0.9813022140
 C         -4.8185572043        1.1712757368       -0.4934842271
 S         -5.5501407811       -0.0141301581        0.6002677769
 C         -4.3231939746       -1.2876908929        0.5840293597
 C         -4.7081515188       -2.5333511871        1.0551014439
 C         -3.8069215098       -3.5808746247        1.1004897091
 C         -2.5201609479       -3.3784609680        0.6369609232
 C         -2.1399981747       -2.1423505786        0.1478480483
 C         -3.0224885326       -1.0599040236        0.1325915494
 C         -0.6566632821        0.2599894667       -1.8272733991
 C          0.7241352012        0.2423935279       -2.0127447206
 C          1.5780881933        0.2424355842       -0.9276077469
 C          1.0558141632        0.3256545023        0.3791893252
 C          3.0278994139        0.1133453708       -1.1420866214
 O          3.5320097933        0.0659252360       -2.2452845780
 N          3.8076985103        0.0288053489        0.0046538869
 C          5.1985548859       -0.2681402850       -0.1839912145
 C          5.5512173005       -1.4969939451       -0.7210123365
 C          6.8873937588       -1.8078767910       -0.8940636930
 C          7.8649326587       -0.9004632038       -0.5223677908
 C          7.5056289185        0.3233264819        0.0158200587
 C          6.1704683787        0.6475859929        0.1830493532
 H          2.0792867670        0.4844159393        3.6051667297
 H         -0.3704945782        0.6877525691        3.9607595295
 H         -1.9058355610        0.5767532611        2.0486966776
 H         -1.9085684961        2.3581396913       -1.7032473157
 H         -3.3940419342        4.0922199313       -2.5355116987
 H         -5.8367731481        3.9611320237       -2.1113815516
 H         -6.7147589477        2.0941530423       -0.7392794530
 H         -5.7242139644       -2.6624474852        1.3953088797
 H         -4.1115130007       -4.5416524348        1.4834199933
 H         -1.8022020340       -4.1839785249        0.6444954376
 H         -1.1375749480       -2.0177222263       -0.2293124122
 H         -1.3133848490        0.1986600999       -2.6824379121
 H          1.1453639235        0.1848651933       -3.0048134665
 H          4.7809357152       -2.1989630403       -1.0034011097
 H          7.1631539886       -2.7632352157       -1.3145804781
 H          8.9076296704       -1.1489764205       -0.6511276281
 H          8.2666430324        1.0309046224        0.3081222206
 H          5.8824215403        1.5979340472        0.6050620509
  53
  -90.4069849988000       6.161906682165556E-002 !
 O          4.1580805229        0.3157159428        2.2049061396
 C          3.3670424244        0.1786264448        1.2955459112
 C          1.9051076193        0.2288847629        1.4808638318
 C          1.3836241651        0.4520464154        2.7379577085
 C          0.0006942505        0.5114838366        2.9296338281
 C         -0.8554816352        0.3365945887        1.8736717323
 C         -0.3579003265        0.0974215539        0.5762588466
 C         -1.2042139393       -0.0878381562       -0.5500906130
 N         -2.6151988111       -0.0584411253       -0.3915533822
 C         -3.2577068832        1.1535335307       -0.6405108871
 C         -2.4978827361        2.2960961329       -0.8973000628
 C         -3.0937177776        3.5164209836       -1.1610626776
 C         -4.4705965748        3.6358299106       -1.1573490151
 C         -5.2402066492        2.5198210382       -0.8818405150
 C         -4.6471106245        1.2930024026       -0.6313691270
 S         -5.7439865698       -0.0625137304       -0.3238402155
 C         -4.6222215673       -1.3057799589        0.2538185252
 C         -5.1975019492       -2.4414246361        0.8004450447
 C         -4.4142680769       -3.5049372866        1.2118380152
 C         -3.0431847232       -3.4252269691        1.0586024614
 C         -2.4641672910       -2.2872753444        0.5258525658
 C         -3.2355039118       -1.1941984648        0.1274189107
 C         -0.6701887095       -0.2856116126       -1.8025555734
 C          0.7123431364       -0.3227819098       -1.9879509493
 C          1.5656047438       -0.1604277001       -0.9165769483
 C          1.0447502334        0.0533244487        0.3770691947
 C          3.0229253354       -0.2080706339       -1.1313434874
 O          3.5297051185       -0.3891426653       -2.2186758129
 N          3.8064971995       -0.0334149912       -0.0019102977
 C          5.2311738204       -0.0779831122       -0.1956819129
 C          5.9115904583       -1.2670960818        0.0053714105
 C          7.2824194147       -1.3044094671       -0.1791315631
 C          7.9635741383       -0.1615643558       -0.5621751737
 C          7.2754632849        1.0230034111       -0.7621575030
 C          5.9047274373        1.0696014045       -0.5788804348
 H          2.0653630220        0.5826852331        3.5648388904
 H         -0.3907736357        0.6960073132        3.9181952600
 H         -1.9234401603        0.3813739779        2.0253269795
 H         -1.4214087294        2.2277756405       -0.8937271421
 H         -2.4703913870        4.3732751853       -1.3649599095
 H         -4.9444686539        4.5825829118       -1.3614170419
 H         -6.3176836159        2.5819465406       -0.8658767332
 H         -6.2727260734       -2.4822066765        0.8851050134
 H         -4.8742556862       -4.3850321218        1.6317029125
 H         -2.4106985491       -4.2489005758        1.3517084961
 H         -1.3927630322       -2.2528256036        0.4082329350
 H         -1.3324462089       -0.4145610320       -2.6454585036
 H          1.1336827558       -0.4845356903       -2.9683166134
 H          5.3689160840       -2.1514271990        0.3047601647
 H          7.8174518271       -2.2289794292       -0.0231102438
 H          9.0332326888       -0.1939883353       -0.7047091430
 H          7.8052341645        1.9150366926       -1.0606120321
 H          5.3567101452        1.9874548012       -0.7315925138
  53
  -90.4066733748000       4.431009103374563E-002 !
 O          4.1459376847        0.0215334177        2.2583666879
 C          3.3635625131        0.0866424116        1.3330406366
 C          1.9083231935        0.2268123488        1.5176784146
 C          1.3825547271        0.2656625917        2.7925942201
 C          0.0022360565        0.3575903952        2.9834746549
 C         -0.8489816530        0.3745175542        1.9084493562
 C         -0.3486200890        0.3269411200        0.5920352052
 C         -1.1923578256        0.3195562820       -0.5539304667
 N         -2.5860177307        0.2047224398       -0.3555888256
 C         -3.4486720048        1.2162350395       -0.7829792084
 C         -2.9695265496        2.3117843389       -1.5026350398
 C         -3.8180435820        3.3050093100       -1.9577971696
 C         -5.1762426191        3.2351127257       -1.7097933555
 C         -5.6635963471        2.1863480938       -0.9519940995
 C         -4.8123655471        1.2032072233       -0.4735641308
 S         -5.5305687725        0.0227790055        0.6343983189
 C         -4.3214752176       -1.2659022199        0.5733793512
 C         -4.7106064554       -2.5158703230        1.0295067486
 C         -3.8208093280       -3.5738705550        1.0334799535
 C         -2.5443833716       -3.3789076835        0.5385812144
 C         -2.1609710429       -2.1381799229        0.0644348298
 C         -3.0284405315       -1.0441184174        0.0984615190
 C         -0.6444776007        0.3507459034       -1.8200365190
 C          0.7370871632        0.3437646474       -1.9974979272
 C          1.5850903261        0.2824755494       -0.9094522665
 C          1.0544043145        0.2826726055        0.3969619439
 C          3.0353107643        0.1621042997       -1.1249627132
 O          3.5433161139        0.1545160901       -2.2274145484
 N          3.8069651889        0.0150606138        0.0199621400
 C          5.2028146825       -0.2575098498       -0.1744217950
 C          5.6856136348       -1.5182723479        0.1399711943
 C          7.0240253630       -1.8043762791       -0.0577612434
 C          7.8713698642       -0.8379914192       -0.5727781039
 C          7.3816870123        0.4185469221       -0.8852320917
 C          6.0449323481        0.7159117021       -0.6845533558
 H          2.0588542901        0.2234673551        3.6329928843
 H         -0.3934715039        0.4056008732        3.9863499512
 H         -1.9156243872        0.4326107253        2.0636058841
 H         -1.9128429284        2.4024979311       -1.6949495676
 H         -3.4059578853        4.1351620692       -2.5104369134
 H         -5.8465021368        3.9956650778       -2.0768204147
 H         -6.7112199774        2.1259916845       -0.6996454256
 H         -5.7192947177       -2.6394213522        1.3926798929
 H         -4.1268448364       -4.5377179957        1.4074104092
 H         -1.8380694060       -4.1941436142        0.5093667302
 H         -1.1679264854       -2.0172616346       -0.3381872649
 H         -1.2942713989        0.3326859040       -2.6823469584
 H          1.1643695922        0.3421496690       -2.9886304360
 H          5.0141024728       -2.2642301713        0.5385286862
 H          7.4024688141       -2.7853890001        0.1870533854
 H          8.9146244936       -1.0658191251       -0.7317047105
 H          8.0417176820        1.1727633854       -1.2862747254
 H          5.6533203453        1.6918724957       -0.9269111130
