  94
       -153.86864535
 N          2.8219304089       -3.1811695137       -1.3310303389
 C          2.2671569736       -2.2956736894       -0.8576838042
 C          1.5790532645       -1.1702559834       -0.3527553501
 C          2.3036603564       -0.0199688090       -0.0048497564
 N          3.6896356332       -0.0338567325       -0.0057621584
 C          4.4905067350       -0.9386491613        0.6702043591
 C          4.1291994537       -1.9589070021        1.5339902234
 C          5.1405197298       -2.7003359624        2.1150077056
 C          6.4802292330       -2.4247732571        1.8573039937
 C          6.8450293659       -1.3855964482        1.0236672754
 C          5.8455149681       -0.6298662955        0.4271878436
 C          5.8570495936        0.5118500619       -0.4471235135
 C          6.8718146729        1.2444481961       -1.0467345893
 C          6.5284606433        2.2941946120       -1.8762641927
 C          5.1946093147        2.6029355565       -2.1265872874
 C          4.1682724570        1.8841912769       -1.5432132838
 C          4.5086382483        0.8530253373       -0.6839960343
 C          1.6021325555        1.1439392073        0.3439157506
 C          2.3124035397        2.2553355650        0.8491621422
 N          2.8853259616        3.1300114699        1.3206213079
 C          0.1960054976        1.1675395407        0.3391569029
 N         -0.4748425662        2.3274962659        0.7037950737
 C         -0.3557535686        3.5594688790        0.0759782394
 C          0.5024817251        3.9556174780       -0.9360506724
 C          0.3780226979        5.2439831559       -1.4221119887
 C         -0.5869958542        6.1154266669       -0.9267950616
 C         -1.4623462846        5.7155395828        0.0642239484
 C         -1.3514080695        4.4285160464        0.5700504127
 C         -2.0907194520        3.6912914699        1.5587420262
 C         -3.1544877448        4.0101561883        2.3902609713
 C         -3.6146798433        3.0510244303        3.2720336496
 C         -3.0027041135        1.8041135339        3.3577968420
 C         -1.9359101809        1.4689073886        2.5451959734
 C         -1.5152505958        2.4053841527        1.6157637190
 C         -0.5210421613        0.0071470081       -0.0019660093
 N         -1.9165716127        0.0197847384        0.0004565483
 C         -2.7216947296        0.8872710119       -0.7174558981
 C         -2.3664679961        1.8804360953       -1.6157566711
 C         -3.3817937255        2.6059965968       -2.2091269188
 C         -4.7198753473        2.3336772578       -1.9400624363
 C         -5.0781021338        1.3097731333       -1.0849331830
 C         -4.0747905029        0.5746781982       -0.4701204055
 C         -4.0810192999       -0.5419909543        0.4337516850
 C         -5.0920157677       -1.2821259785        1.0297832375
 C         -4.7446105501       -2.3036306312        1.8921786914
 C         -3.4105389958       -2.5679901119        2.1881314888
 C         -2.3881143339       -1.8381671760        1.6127818430
 C         -2.7315978352       -0.8492814563        0.7051437965
 C          0.1729654375       -1.1670640498       -0.3453758234
 N         -0.5212397343       -2.3142678869       -0.7077974521
 C         -0.4379314256       -3.5428422363       -0.0667028389
 C          0.4188922866       -3.9580704843        0.9387252791
 C          0.2540191398       -5.2350758918        1.4426014459
 C         -0.7483756032       -6.0766956690        0.9706200445
 C         -1.6206264988       -5.6575917628       -0.0151942370
 C         -1.4696253503       -4.3817568721       -0.5385673056
 C         -2.1949927987       -3.6304865501       -1.5270018419
 C         -3.2820073732       -3.9191539761       -2.3391673263
 C         -3.7196203937       -2.9535639838       -3.2254509528
 C         -3.0628991380       -1.7316059559       -3.3359004270
 C         -1.9729673346       -1.4267195457       -2.5422992954
 C         -1.5748829877       -2.3668682524       -1.6066394150
 H          3.0959490056       -2.1704644692        1.7585511887
 H          4.8847143295       -3.5072555780        2.7850082577
 H          7.2418453787       -3.0277859379        2.3273010886
 H          7.8841199455       -1.1590870966        0.8415200480
 H          7.9059309478        0.9924312932       -0.8698413654
 H          7.3023494372        2.8799163186       -2.3481134220
 H          4.9552063142        3.4181823783       -2.7925642689
 H          3.1396387225        2.1221787769       -1.7620068485
 H          1.2491647143        3.2921165650       -1.3423359830
 H          1.0433019174        5.5781321505       -2.2040671505
 H         -0.6524536150        7.1142262308       -1.3303394548
 H         -2.2213381952        6.3854496930        0.4376190201
 H         -3.6059478523        4.9893739307        2.3505349780
 H         -4.4473793777        3.2753673448        3.9209344935
 H         -3.3623931550        1.0835780076        4.0768921472
 H         -1.4495721406        0.5122833495        2.6472127152
 H         -1.3367338667        2.0880527248       -1.8616396573
 H         -3.1285955476        3.3971561479       -2.8991787314
 H         -5.4850535829        2.9237940585       -2.4210216313
 H         -6.1161643290        1.0808579830       -0.8989114166
 H         -6.1275287441       -1.0588296388        0.8239154973
 H         -5.5155777896       -2.8976454650        2.3587926806
 H         -3.1664687612       -3.3563576539        2.8846308851
 H         -1.3617587859       -2.0394287296        1.8779933939
 H          1.1949618884       -3.3178792366        1.3267313649
 H          0.9166020179       -5.5835257658        2.2206264547
 H         -0.8455609841       -7.0670588486        1.3883983290
 H         -2.4080895728       -6.3039227178       -0.3707549398
 H         -3.7691344688       -4.8802038245       -2.2810536879
 H         -4.5701760038       -3.1539743387       -3.8588649546
 H         -3.4063155176       -1.0067674367       -4.0585941743
 H         -1.4527883400       -0.4898988277       -2.6615900316
  94
       -153.86649786
 N          2.8408812013       -3.1452156236       -1.4236305558
 C          2.2772484542       -2.2282004908       -1.0279222879
 C          1.5842350352       -1.1016028695       -0.5298796619
 C          2.3075683158       -0.0160759615       -0.0149251709
 N          3.6967666837       -0.0343206005       -0.0133290149
 C          4.4885045023       -0.9785835558        0.6156363633
 C          4.1129993219       -2.0493656255        1.4100247024
 C          5.1181384864       -2.8235698531        1.9586623591
 C          6.4611842342       -2.5332848098        1.7351180480
 C          6.8377064518       -1.4500223861        0.9653729981
 C          5.8462099691       -0.6586911145        0.4020869748
 C          5.8666006339        0.5293623313       -0.4079087414
 C          6.8854165490        1.2934974944       -0.9597336078
 C          6.5470534643        2.3892061829       -1.7296865264
 C          5.2149513767        2.7180430196       -1.9649552503
 C          4.1830397192        1.9708358150       -1.4285885259
 C          4.5203894597        0.8877443045       -0.6337253607
 C          1.6094349026        1.0845925372        0.5029720125
 C          2.3288660422        2.1976512003        0.9939439892
 N          2.9144860331        3.1027464296        1.3853300085
 C          0.2033981062        1.1007162783        0.5206342276
 N         -0.4706833451        2.1916759613        1.0551849285
 C         -1.5107576326        2.8741379489        0.4453119481
 C         -1.9239921441        2.8380043245       -0.8759288631
 C         -2.9941343506        3.6353048827       -1.2362777711
 C         -3.6159744780        4.4721256800       -0.3144515088
 C         -3.1642831207        4.5563544954        0.9887246671
 C         -2.0977669322        3.7572876585        1.3745994145
 C         -1.3703689451        3.6011307630        2.6051450394
 C         -1.4974812934        4.1713059156        3.8635814938
 C         -0.6370106285        3.7641950440        4.8644349924
 C          0.3274531785        2.7898056033        4.6261225251
 C          0.4702811756        2.2056030439        3.3809709144
 C         -0.3708218245        2.6342864187        2.3671039334
 C         -0.5134872432        0.0117228139       -0.0049350085
 N         -1.9092967357        0.0237459452       -0.0003435880
 C         -2.7216934801       -0.1133424655       -1.1128108265
 C         -2.3736232447       -0.2034421922       -2.4507324596
 C         -3.3938748939       -0.3214019885       -3.3750374767
 C         -4.7294926457       -0.3213702552       -2.9834348251
 C         -5.0805959964       -0.1799277397       -1.6550465214
 C         -4.0720999007       -0.0691932832       -0.7084519910
 C         -4.0690849172        0.1103858843        0.7169442084
 C         -5.0743468679        0.2163760600        1.6674598916
 C         -4.7187671248        0.3593593071        2.9944623554
 C         -3.3815216918        0.3670957392        3.3803490026
 C         -2.3642363731        0.2534405907        2.4521250557
 C         -2.7169547593        0.1592705604        1.1157151018
 C          0.1782331699       -1.0907833119       -0.5364864696
 N         -0.5216779842       -2.1705175589       -1.0608290810
 C         -1.5653464895       -2.8317797808       -0.4338526084
 C         -1.9539409855       -2.7888092112        0.8946172754
 C         -3.0332089376       -3.5649704314        1.2734909754
 C         -3.6882042193       -4.3878426231        0.3621100023
 C         -3.2621455543       -4.4791257928       -0.9492312270
 C         -2.1868684842       -3.7011720824       -1.3535169984
 C         -1.4773240038       -3.5589354783       -2.5961139713
 C         -1.6393186021       -4.1234318130       -3.8530374351
 C         -0.7867560519       -3.7346093751       -4.8678682842
 C          0.2053900728       -2.7848701270       -4.6440856283
 C          0.3827836157       -2.2061511356       -3.4007750097
 C         -0.4525025357       -2.6149514319       -2.3740440844
 H          3.0751673676       -2.2795782501        1.5976324515
 H          4.8543045308       -3.6694924569        2.5751391269
 H          7.2166170454       -3.1632268585        2.1792300079
 H          7.8792436214       -1.2168276522        0.8069305379
 H          7.9183600111        1.0304671630       -0.7919209129
 H          7.3242344861        2.9990459792       -2.1642259024
 H          4.9810910430        3.5734660626       -2.5804696217
 H          3.1539429078        2.2309998390       -1.6250733407
 H         -1.4316271085        2.2176974656       -1.6076342225
 H         -3.3496175914        3.6091445154       -2.2553581909
 H         -4.4513454499        5.0773021484       -0.6318734570
 H         -3.6254603905        5.2313645990        1.6929348921
 H         -2.2580449094        4.9129169533        4.0529371202
 H         -0.7150329946        4.1987303746        5.8492685641
 H          0.9780416347        2.4796122470        5.4298813346
 H          1.2160707126        1.4420223265        3.2202486788
 H         -1.3454251630       -0.1762756559       -2.7768477278
 H         -3.1465657487       -0.4104996884       -4.4224158273
 H         -5.4987449084       -0.4175283969       -3.7344550670
 H         -6.1170317316       -0.1513491978       -1.3558453253
 H         -6.1117636683        0.1825254619        1.3721927962
 H         -5.4855315494        0.4510624916        3.7486197010
 H         -3.1304478984        0.4584853112        4.4266439963
 H         -1.3348648462        0.2322608897        2.7747484172
 H         -1.4359554767       -2.1791815534        1.6176643328
 H         -3.3688447545       -3.5340897530        2.2991846381
 H         -4.5293253336       -4.9770463031        0.6940484251
 H         -3.7491888790       -5.1440624950       -1.6455259362
 H         -2.4204131559       -4.8464003456       -4.0303738003
 H         -0.8923014192       -4.1646605439       -5.8520873181
 H          0.8500090626       -2.4893676389       -5.4581554675
 H          1.1498462173       -1.4616457244       -3.2511357339
