  73
       -119.32020450
 O          6.2432653805       -3.0927325999       -1.4717298793
 C          5.8858163042       -2.0018815808       -0.9801135162
 C          6.8529147540       -1.0050121214       -0.5235970979
 C          8.2267167983       -1.2464815170       -0.6357412819
 C          9.1400706911       -0.3057085496       -0.2044425942
 C          8.7039217257        0.8923745225        0.3411343288
 C          7.3473040551        1.1502254132        0.4587385978
 C          6.4192329867        0.2094372281        0.0291181405
 O          5.1076595499        0.5293440720        0.1703084792
 C          4.1668864845       -0.3700360583       -0.2449198134
 C          2.8493413946       -0.0091953452       -0.0835109048
 C          1.7994036536       -0.8725724706       -0.4597171304
 C          0.4200853363       -0.4868428726       -0.2805402496
 C          0.0442237476        0.8668455038       -0.2133244728
 C         -1.2742758227        1.2411412985       -0.0193307759
 N         -1.5977572602        2.6026492108        0.0787864406
 C         -0.9667588652        3.5113213080        0.9024066848
 C          0.0664976459        3.3133444659        1.8090967564
 C          0.5086065248        4.4062423536        2.5307335588
 C         -0.0663029182        5.6642844685        2.3694250375
 C         -1.1149581078        5.8615440468        1.4887270983
 C         -1.5738897313        4.7805348825        0.7521030733
 C         -2.6255027256        4.6158487398       -0.2158455831
 C         -3.5480109334        5.4830460911       -0.7803093581
 C         -4.4294674129        4.9888936479       -1.7252700690
 C         -4.3836976339        3.6544542690       -2.1200667013
 C         -3.4716005482        2.7727912199       -1.5718915108
 C         -2.6035088520        3.2544817361       -0.6017671795
 C         -2.2809583522        0.2830698804        0.0980660104
 C         -1.9240132075       -1.0630885003        0.0194216923
 N         -2.9177391664       -2.0453338406        0.1564068417
 C         -2.8851631969       -3.1032278454        1.0398698083
 C         -1.9206572316       -3.4387560708        1.9811224310
 C         -2.1464521182       -4.5558659922        2.7634352125
 C         -3.3042581309       -5.3175246775        2.6263853734
 C         -4.2797755840       -4.9738128599        1.7073635989
 C         -4.0750144615       -3.8585366135        0.9098892262
 C         -4.8566580819       -3.2137570295       -0.1115001028
 C         -6.0876351782       -3.4856119470       -0.6882574244
 C         -6.5472889475       -2.6518324068       -1.6921670116
 C         -5.7868690641       -1.5716128704       -2.1323777279
 C         -4.5567698805       -1.2826916664       -1.5729180506
 C         -4.1023384734       -2.0979689168       -0.5455338999
 C         -0.6058515771       -1.4425696947       -0.1659648712
 C          2.1584746006       -2.1181729593       -1.0142562112
 C          3.4644964894       -2.4806683501       -1.1860034061
 C          4.5179029802       -1.6176198380       -0.8069862224
 H          8.5430357563       -2.1852291933       -1.0628305995
 H         10.1969763527       -0.5084708134       -0.2909734863
 H          9.4166372881        1.6299899235        0.6770775783
 H          6.9846983671        2.0767598884        0.8756608881
 H          2.6499027676        0.9439848043        0.3793368612
 H          0.7830627251        1.6372114639       -0.3648124190
 H          0.5023570328        2.3370897558        1.9559538864
 H          1.3143541809        4.2802447083        3.2381272107
 H          0.3080766213        6.4940814493        2.9495196550
 H         -1.5702283541        6.8337582917        1.3774736189
 H         -3.5720562062        6.5222831671       -0.4901327413
 H         -5.1576480516        5.6474107780       -2.1741195565
 H         -5.0723983748        3.3016891560       -2.8730207427
 H         -3.4271963108        1.7463067753       -1.8993878062
 H         -3.3008102182        0.5724411252        0.2940131323
 H         -1.0291240630       -2.8435702747        2.1053451807
 H         -1.4101320764       -4.8416875546        3.4993074318
 H         -3.4432462534       -6.1843642895        3.2545897784
 H         -5.1828619692       -5.5572618364        1.6126906444
 H         -6.6704128781       -4.3335411669       -0.3623713738
 H         -7.5051012714       -2.8448179138       -2.1513176036
 H         -6.1636004230       -0.9499012035       -2.9306671579
 H         -3.9609414984       -0.4596380125       -1.9349197046
 H         -0.3730762307       -2.4939629616       -0.2197203565
 H          1.3872259933       -2.7933648303       -1.3529243163
 H          3.7314750093       -3.4289434821       -1.6255845032
