73
 energy: -119.410054788821 gnorm: 0.000033407655 xtb: 6.7.1 (edcfbbe)
O            6.32873163300613        2.90865243446966       -1.27250495705177
C            5.95498066713864        1.90414781344504       -0.69323170268557
C            6.87583742441505        0.95336908370762       -0.04986627139166
C            8.25520612947387        1.17531647716229       -0.08155307924689
C            9.12416700084609        0.29225028483941        0.51657595579396
C            8.62689375927029       -0.83655500559875        1.16198472206716
C            7.27113554821570       -1.07728809241446        1.20691785510564
C            6.38645165140377       -0.18406167266330        0.60136363800307
O            5.06569955874858       -0.47921503813422        0.68121941678867
C            4.16879816243148        0.35756277216318        0.10654795473394
C            2.82485575632486        0.00816471769085        0.21544305427796
C            1.84022989981071        0.81119507799264       -0.33843868363595
C            0.42333400569902        0.43724583493062       -0.22125092381987
C           -0.54458182176009        1.41104334036881        0.00136312823115
C           -1.88684906677365        1.06056114891585        0.10138622254554
N           -2.85147982424590        2.05085344839252        0.31313267543571
C           -3.84660266411376        2.02849563598827        1.27256184203591
C           -4.10649764062516        1.08613500091236        2.25676774827612
C           -5.16156048486767        1.32564156753600        3.11662876228097
C           -5.93848492463379        2.47694911263722        3.01255545168512
C           -5.66851435670841        3.43046043287699        2.05146754101048
C           -4.61341915638951        3.21190430283597        1.17569915698569
C           -4.05077715212105        3.97804585983497        0.09862581236677
C           -4.37593278342042        5.19983427180595       -0.47554161946936
C           -3.62471494300592        5.65010678278547       -1.54270472718887
C           -2.57277653774339        4.89041851690269       -2.04908204884373
C           -2.23085335339264        3.67177623370548       -1.49448733691105
C           -2.96408730276540        3.22742862402572       -0.40394651771984
C           -2.26847192511056       -0.27236182305177       -0.00392658083162
C           -1.30349618870943       -1.25021846151667       -0.21812106235779
N           -1.67836911507589       -2.59372931255307       -0.32369039682588
C           -1.09066723376681       -3.64610793746542        0.35267382487802
C           -0.08054498982374       -3.63211056065323        1.30342733487491
C            0.30680822176074       -4.83996345769378        1.85169314583744
C           -0.29869404940258       -6.03667093124373        1.47564857538250
C           -1.32332966836592       -6.05356759729825        0.55056915637144
C           -1.72946762426335       -4.85202248475031       -0.01463491914930
C           -2.74837527984915       -4.50175842120273       -0.96471767406405
C           -3.67619851627995       -5.24286305773327       -1.68442447298201
C           -4.51840557202020       -4.58133504352634       -2.55547977999510
C           -4.43258613721754       -3.20148629191378       -2.72494318953948
C           -3.51741713994867       -2.44279171894048       -2.02023205114053
C           -2.68569179212350       -3.09877811601207       -1.12458340590933
C            0.03565203346671       -0.89377816175675       -0.33470240697121
C            2.21390364580734        1.98065068297348       -1.01341290667010
C            3.53822368924186        2.32493524274816       -1.12625587148412
C            4.54007599127373        1.52490306055420       -0.56943289856075
H            8.60591182257367        2.06038805310342       -0.59061483200077
H           10.18786382733919        0.47113510080760        0.48725790390543
H            9.30674130699640       -1.53101101976932        1.63211524925206
H            6.86846073409461       -1.94677247674263        1.70229033829946
H            2.57372369878670       -0.88996013800821        0.75766680151949
H           -0.25606469505508        2.44197299942967        0.13518941530524
H           -3.49962771136520        0.19932340701991        2.36085247440076
H           -5.38589572225436        0.60476935406912        3.88888902520312
H           -6.75616474297279        2.62577352615354        3.70184504727464
H           -6.25927901246050        4.33117786732851        1.98091416785907
H           -5.20297709296870        5.77958031997543       -0.09458099355296
H           -3.85858798275123        6.59903317669612       -2.00164844560467
H           -2.01439557022926        5.25979359728826       -2.89654548177357
H           -1.42843131861385        3.08027076562413       -1.90933406649977
H           -3.30852420754785       -0.54641443182928        0.07955231215946
H            0.37953624710250       -2.70759449175666        1.61886760820694
H            1.09358665300437       -4.85566000427755        2.59149497231258
H            0.03441670252044       -6.96030143112789        1.92490127295871
H           -1.80531942289298       -6.97856769140548        0.27254658155952
H           -3.73038700266415       -6.31436607803847       -1.56507461946602
H           -5.24900928091623       -5.13814789467647       -3.12295280648740
H           -5.09349702312093       -2.71300935684349       -3.42558709050227
H           -3.44745320699301       -1.37676186029258       -2.17575579687701
H            0.76869519723759       -1.65502635524300       -0.55151400182702
H            1.45533703414244        2.60172816889689       -1.46410242880568
H            3.84635459220534        3.21886169577390       -1.64722570745035
