73
 energy: -119.409999929548 gnorm: 0.000036169559 xtb: 6.7.1 (edcfbbe)
O            6.35582028717911       -2.60800303452761       -2.46218777829437
C            6.03768552990934       -1.72446010790708       -1.68609244998589
C            7.01481676526665       -0.89647308011020       -0.96102112321239
C            8.38538188072662       -1.10551740972236       -1.13651659068258
C            9.30655416563283       -0.33767195004456       -0.46231723246957
C            8.87176008009345        0.66057392320718        0.40514726571070
C            7.52595970356507        0.88624298312643        0.59471628414519
C            6.58848725488531        0.10897629515501       -0.08659661929660
O            5.28078890040224        0.38077353479725        0.14570366784737
C            4.33410457282872       -0.35309434167312       -0.48674188952501
C            3.00597217509625       -0.04145975218245       -0.20517232063043
C            1.97445146596219       -0.75169947476204       -0.79867924651024
C            0.57606230109024       -0.42799108158052       -0.47922978064334
C            0.17103539453516        0.89641467812505       -0.35510676891428
C           -1.14832063424355        1.20293542570204       -0.03867120376642
N           -1.53258530043658        2.54021407876169        0.11117159400069
C           -2.62771420349204        3.14806769206383       -0.47273328385845
C           -3.55675080866738        2.63134998043670       -1.36299756402829
C           -4.55247094369351        3.47237849556891       -1.82122489728027
C           -4.62227595550213        4.80321081798353       -1.41642118263799
C           -3.68413322658628        5.33189432653310       -0.55257950030473
C           -2.67533120946213        4.50431091593217       -0.07775331250726
C           -1.55229337471164        4.71650229378033        0.79217355174275
C           -1.08516852409445        5.81878083846266        1.49569508090952
C            0.04091199980704        5.67379128605483        2.28091551317075
C            0.68827428778818        4.44477788412957        2.38375118357959
C            0.24177952924872        3.33414257655956        1.69343325040041
C           -0.87250590844866        3.48064399524302        0.88022146872434
C           -2.07259359288856        0.18255792092216        0.15691073774733
C           -1.67425456657802       -1.14333979129076        0.02321862453710
N           -2.59055200358067       -2.17828322390991        0.24129078856424
C           -2.38997661956326       -3.26731034317538        1.07002846423320
C           -1.30800824343794       -3.57453578802245        1.88215711642440
C           -1.37694174093498       -4.72822502293827        2.63981745971887
C           -2.49570820892719       -5.55710701482786        2.60385569963118
C           -3.58606894141092       -5.24277030502630        1.81781050222102
C           -3.53993692319638       -4.08855251970858        1.04725175790216
C           -4.47417606412529       -3.46057046834162        0.15515290612583
C           -5.74902162640637       -3.79519631627354       -0.28159372855157
C           -6.37896015615521       -2.96278276123418       -1.18503601702559
C           -5.74590758365331       -1.81933052538188       -1.66621139140347
C           -4.47729411007483       -1.46784313954248       -1.24677401701849
C           -3.85025883930198       -2.28374028621966       -0.31728894681833
C           -0.35561565336488       -1.44500435617334       -0.30051313677237
C            2.28216398786859       -1.78352295093557       -1.69457080314000
C            3.59056688574220       -2.08695185506633       -1.98021895350316
C            4.64022036675351       -1.38411414225253       -1.38160949219248
H            8.68705828556632       -1.88769320679046       -1.81672057762246
H           10.36299284455265       -0.50612306735068       -0.60327136552505
H            9.59265324417409        1.26442238488127        0.93539449330770
H            7.17127636705547        1.65517814727212        1.26291511879693
H            2.80537846415812        0.74896499615594        0.50115126159393
H            0.87196272805309        1.69609253690636       -0.53736829084309
H           -3.49848468571267        1.60873945106469       -1.70188997023119
H           -5.28986189481804        3.09011015324353       -2.51146911383239
H           -5.41698603514916        5.42874646025296       -1.79450940206329
H           -3.72689538967568        6.36800998174679       -0.25266906130063
H           -1.59856559154977        6.76608713201751        1.43031667793939
H            0.42269593296593        6.51908016079796        2.83372145848774
H            1.55610519951771        4.35660948662831        3.02066240380724
H            0.73712337938164        2.38062672279448        1.79894103722052
H           -3.08552307305274        0.41717921785146        0.44576393148241
H           -0.44280770173048       -2.93078280854109        1.93375064668319
H           -0.54513916347218       -4.99063533013373        3.27671125445834
H           -2.50934186485210       -6.45163389606880        3.20839109431622
H           -4.46071392015551       -5.87522018884791        1.80218666885260
H           -6.23140343124189       -4.69163845094883        0.07753398098229
H           -7.37183797308044       -3.20296551749678       -1.53477159242194
H           -6.25531433449065       -1.19587897522640       -2.38603828077923
H           -3.98686564190678       -0.59308048461209       -1.64472890999839
H           -0.05739599527325       -2.47699081248174       -0.40049966207126
H            1.48303673119668       -2.32563435309052       -2.17616695099761
H            3.84887894810865       -2.87455863970232       -2.67189953660533
