73
 energy: -119.324529267435 gnorm: 0.000130667617 xtb: 6.7.1 (edcfbbe)
O            6.21600004215206       -3.04994433942041       -1.58404451551881
C            5.86389839365335       -1.97443220127892       -1.03804803123061
C            6.83737059650753       -1.01218191099423       -0.53673633962146
C            8.21030714799632       -1.25959853895146       -0.65777653657092
C            9.12857075532338       -0.34701529525082       -0.18080097854681
C            8.70023232424817        0.82593145052213        0.42139170923048
C            7.34483805712935        1.08773132883715        0.54880136705223
C            6.41126908176592        0.17744546012967        0.07312900278390
O            5.09970866922479        0.50003579747801        0.22765776605912
C            4.15482220331345       -0.37332245472237       -0.23315541077915
C            2.83834028369732       -0.01376506547563       -0.06138820242212
C            1.78912681684585       -0.85368664291488       -0.48320889954147
C            0.40675994951825       -0.46795347465817       -0.29232172177770
C            0.03354616561448        0.88258143300727       -0.21797994927843
C           -1.28656951594769        1.25411116677803       -0.02007518174586
N           -1.61131434689867        2.61495413334791        0.08147338237118
C           -0.98148556223448        3.52077645752975        0.90966293953678
C            0.04168201959448        3.31637179952091        1.82594543018619
C            0.48347363583445        4.40651450411160        2.55179515497555
C           -0.08182260947701        5.66817783446142        2.38435379730631
C           -1.11989046737682        5.87189145608408        1.49311707302508
C           -1.57877596195844        4.79339946954895        0.75224787501947
C           -2.62141583982469        4.63483804118889       -0.22612632649003
C           -3.53038880713479        5.50857631580761       -0.80282935072605
C           -4.40529882393954        5.01981210404713       -1.75620591140181
C           -4.36774329230220        3.68366384844637       -2.14616472644542
C           -3.46931947951321        2.79542461016653       -1.58605439347989
C           -2.60632971570027        3.27281341342692       -0.60956363381745
C           -2.28835974459059        0.29291040776409        0.09832023980058
C           -1.93109054282573       -1.05168700130016        0.01778230364407
N           -2.91744868093064       -2.03950330962938        0.16290992769401
C           -2.86447990709877       -3.09966636540731        1.04363951744901
C           -1.89128728600966       -3.42190878239009        1.98029987296760
C           -2.09670322039013       -4.54354062509445        2.76159310322278
C           -3.24308283719110       -5.32280781959774        2.62761855404882
C           -4.22709478652788       -4.99253395085857        1.71321843699985
C           -4.04291631940302       -3.87243971323698        0.91703617569750
C           -4.83910112234521       -3.23702997423637       -0.09873219169242
C           -6.06832265456951       -3.52749699609550       -0.67057022010875
C           -6.54674287693576       -2.69814637496303       -1.66891868571269
C           -5.80709656781317       -1.60307482673745       -2.10793000390248
C           -4.57914172059343       -1.29550609276383       -1.55362286517661
C           -4.10527837392456       -2.10789901672972       -0.53299667513385
C           -0.61136742114380       -1.42671442346741       -0.17545290160127
C            2.13883167383759       -2.07148821209499       -1.09355026569573
C            3.44418047812844       -2.43297054127959       -1.27933590322610
C            4.49867621209830       -1.59447215014417       -0.85231757844638
H            8.52233677683705       -2.17827317855336       -1.12896390287273
H           10.18401846033483       -0.55256013281085       -0.27776494865187
H            9.41735492797332        1.54121861478734        0.79387872856108
H            6.98808706611525        1.99475905633291        1.01106970811880
H            2.63846590627625        0.91810953236194        0.44315347269561
H            0.77317672194613        1.65340016762545       -0.36423331314093
H            0.47016946973950        2.33737732240477        1.97670896104922
H            1.28142878046170        4.27567580756546        3.26713196947921
H            0.29206485409097        6.49563970656850        2.96824394580200
H           -1.56752742055057        6.84706852115342        1.37676831111477
H           -3.54869325279569        6.54867007801932       -0.51517494662135
H           -5.12253176384848        5.68356438191320       -2.21489844876689
H           -5.05177453721967        3.33489347359036       -2.90525303569781
H           -3.43130711136166        1.76725990938662       -1.90969933682705
H           -3.30900852886029        0.58057609696429        0.29421943962749
H           -1.00822577922454       -2.81363276538552        2.10223473262565
H           -1.35315731700118       -4.81894765359648        3.49422833347173
H           -3.36620259523839       -6.19259563144696        3.25507198263451
H           -5.12155185736512       -5.58949331205751        1.62111094148538
H           -6.63487918422702       -4.38644145288092       -0.34486686749062
H           -7.50300191523873       -2.90592567071397       -2.12475906224822
H           -6.19880234062547       -0.98402191033487       -2.90109468881014
H           -4.00057053248607       -0.45962216382599       -1.91446518990876
H           -0.37318369403547       -2.47697461896840       -0.23062691422133
H            1.36348805316233       -2.72494638965421       -1.46418726850978
H            3.70671169861403       -3.36061767355678       -1.76310968640783
