73
 energy: -119.324280761007 gnorm: 0.000095375120 xtb: 6.7.1 (edcfbbe)
O            6.31913354816021        3.09164594043803       -0.84680010651114
C            5.92988103289731        1.96365812953392       -0.45214598725016
C            6.86738078066591        0.93319200637798       -0.02379125540792
C            8.24688323772449        1.17294074552303       -0.04321270836790
C            9.13078228377342        0.19593752012168        0.36649809132837
C            8.66130097453911       -1.03471851878743        0.79881220805354
C            7.29885310926777       -1.29006894691303        0.82285403126538
C            6.39953018969995       -0.31525902179107        0.41376189273590
O            5.07894380853282       -0.63492319911059        0.45948212923011
C            4.16668812906397        0.30386785576712        0.06689936239869
C            2.83955738485363       -0.05181894231552        0.13184695420110
C            1.82156828775502        0.85257129338713       -0.22800528973567
C            0.42620277490137        0.47371292252984       -0.15196230570683
C           -0.57832486683395        1.43328604789823        0.04291863270531
C           -1.91371881715946        1.06998004068350        0.10883542525649
N           -2.89007413694264        2.05890541077230        0.30089133011404
C           -3.88724033704992        2.04198548368387        1.25271815598897
C           -4.14738413169178        1.10593804715438        2.24479554863116
C           -5.21051113255185        1.34653613018296        3.09486964269478
C           -5.99336110812924        2.49170354290338        2.97349116762062
C           -5.72352709322654        3.44003211047971        2.00329537413872
C           -4.66262469521611        3.22031289121453        1.13819001588085
C           -4.09460710615261        3.97791124136115        0.05518014331174
C           -4.41743930096142        5.19009379491506       -0.53562482854461
C           -3.65396187130524        5.63036238668281       -1.60180050698762
C           -2.59327161074611        4.87001417591333       -2.08789866322332
C           -2.25368522172567        3.65802832605867       -1.51668398283525
C           -2.99993937428568        3.22382844956951       -0.42901822361998
C           -2.29513176348654       -0.26611871928486        0.00396793015719
C           -1.30560138473326       -1.22934013149468       -0.18166854119546
N           -1.66373169148689       -2.58070390271126       -0.29767410801151
C           -1.08749991518478       -3.62178815780234        0.39975010226950
C           -0.10574006798956       -3.59113591456876        1.38142854210332
C            0.27973176972330       -4.79319543338183        1.94444089651901
C           -0.30061001967762       -5.99752399168696        1.55425970325084
C           -1.29818209338680       -6.03107297369801        0.59663046124762
C           -1.70005753611095       -4.83781907882473        0.01580384233429
C           -2.69192364018625       -4.49993192299742       -0.96976903134452
C           -3.58869874835971       -5.24842370185690       -1.71662715329395
C           -4.40856079830273       -4.59281793786866       -2.61734240848556
C           -4.32860628578603       -3.21308434867433       -2.78745858311482
C           -3.44215961325999       -2.44593818582651       -2.05504005194189
C           -2.63467025747823       -3.09507317289095       -1.13051848719824
C            0.02885868640630       -0.86673974951330       -0.26853602310192
C            2.21349417733606        2.13026240124856       -0.66600322358190
C            3.53018444514585        2.48922108357800       -0.74702919655775
C            4.55334196473408        1.58621665468335       -0.37948703552132
H            8.59130039618135        2.13716605537087       -0.38228958099088
H           10.19153389070190        0.39637580972654        0.35046302504623
H            9.35155714274673       -1.80010336602683        1.11875050494839
H            6.91049240026083       -2.24103479709008        1.15222271804891
H            2.60444229539011       -1.03520678272874        0.50665003806332
H           -0.31356113194567        2.46780512454494        0.19340536270801
H           -3.53316858502875        0.22606836226022        2.35996076253634
H           -5.43558413890353        0.63258189283152        3.87292309695734
H           -6.81636009277321        2.64310141501185        3.65554320212284
H           -6.32082582130861        4.33526739088445        1.92171947937709
H           -5.24944072875270        5.77311166145512       -0.17126878933076
H           -3.88678139599214        6.57316827542838       -2.07326465831256
H           -2.02598829324851        5.23297251047032       -2.93170586578794
H           -1.44297902170679        3.06490403317581       -1.91154438854764
H           -3.33380817106800       -0.54831897909578        0.06541754078244
H            0.33442091012916       -2.65993869917770        1.70386475627009
H            1.04486482551924       -4.79759901020371        2.70611136777804
H            0.02911973368301       -6.91610047038225        2.01570291886738
H           -1.75862775073362       -6.96356894167416        0.30792230678416
H           -3.63983521319616       -6.32002929902137       -1.59857069459149
H           -5.11526557688611       -5.15721072525956       -3.20680773450831
H           -4.96984552484241       -2.73177059146585       -3.51057583477856
H           -3.37250678996524       -1.38010651624926       -2.20940738184598
H            0.76250311625371       -1.62883978921555       -0.47715999758238
H            1.46392751063815        2.83930751474754       -0.98418489997265
H            3.82607723729183        3.46502604397501       -1.09880907323762
