  34
  -52.1017863952000        1.00000000000000      !
 C          3.8053857410       -2.2549447847        0.2597214504
 C          2.5219660478       -2.5983802225        0.6566262519
 C          1.4939185558       -1.6611600877        0.5811395428
 C          1.7232299254       -0.3773031243        0.1073796944
 C          3.0663986343        0.0192499877       -0.1819209118
 C          4.0795106058       -0.9644452734       -0.1401330034
 C          3.3843585767        1.3642417339       -0.4241490197
 C          2.4147969101        2.3789200306       -0.3338117390
 C          1.1171447926        2.0084165755       -0.1077460489
 N          0.0010471161        2.8038372867       -0.0038043965
 C         -1.1153681869        2.0093545037        0.1034837221
 C         -2.4116604103        2.3802338261        0.3360814337
 C         -3.3810522543        1.3656572744        0.4321264848
 C         -3.0650761689        0.0207986621        0.1872055883
 C         -4.0783420126       -0.9630805871        0.1517621534
 C         -3.8071843201       -2.2526026162       -0.2532779677
 C         -2.5271653526       -2.5946090806       -0.6620996990
 C         -1.4983433971       -1.6576506486       -0.5916782027
 C         -1.7239588294       -0.3755562303       -0.1117570796
 C         -0.6958799344        0.6296882521        0.0063421814
 C          0.6963790941        0.6290061595       -0.0126749808
 H          4.5955549173       -2.9913276539        0.2875166309
 H          2.3113367059       -3.5931630970        1.0193001403
 H          0.5088113495       -1.9322339622        0.9269866248
 H          5.0862821462       -0.6798566223       -0.4097815955
 H          4.4111683820        1.6309554831       -0.6225138772
 H          2.6932089100        3.4158163891       -0.4437655263
 H          0.0019317834        3.8084024579        0.0001544712
 H         -2.6892432070        3.4171601861        0.4480139150
 H         -4.4064659400        1.6326362018        0.6371594598
 H         -5.0831158606       -0.6792093018        0.4299485129
 H         -4.5974027640       -2.9892771623       -0.2757610689
 H         -2.3194664956       -3.5882619720       -1.0295471002
 H         -0.5159262509       -1.9275562761       -0.9460617757
