38
 energy: -61.596070505213 gnorm: 0.000118231799 xtb: 6.7.1 (edcfbbe)
C            3.30232555113325        2.66681185563896        0.00282610625665
C            1.96376535874618        2.94574292360338        0.00159972099027
C            1.01801324476072        1.86737200819618       -0.00100241506590
C           -0.37823838095186        2.00730397823972       -0.00185392064038
C           -1.07689958572613        3.27266150522811       -0.00190783114360
C           -2.43856858011323        3.34910580744237       -0.00098506220729
C           -3.26870640165258        2.20569974461208        0.00012702803931
C           -2.64172547199431        0.95493788613368       -0.00030421949924
C           -1.23967332272916        0.86106589655659       -0.00189517854886
N           -0.87238276040498       -0.44971806613079       -0.00239788580652
C           -1.97674038431504       -1.23480395250581       -0.00076076995934
C           -2.08390942375302       -2.62239578042499       -0.00013554155864
C           -3.35066044721290       -3.16629511163520        0.00213471551669
C           -4.48945111557778       -2.35029390772813        0.00368663873579
C           -4.39475494783745       -0.97145097828559        0.00292553528547
C           -3.13228567640712       -0.39264977951486        0.00063525816237
N            1.48968442789371        0.58476319834689       -0.00266505996121
C            2.76707660967378        0.33906146077521       -0.00199933069421
N            3.07329571297333       -1.02570214181657       -0.00461811231487
C            4.28397458035520       -1.63640229043485       -0.00678962971055
C            4.05155847846682       -2.98753286293229       -0.01002426223189
C            2.65052045504529       -3.10366541690466       -0.00957883974182
N            2.07842743792194       -1.92148364487812       -0.00632891751372
C            3.75857198534167        1.33737526024848        0.00107077922144
H            4.02687147809398        3.46853290127690        0.00519148928133
H            1.61887286137955        3.96609266897380        0.00284684633229
H           -0.49708161106853        4.18096891968930       -0.00286609719038
H           -2.90924709797231        4.32225375601520       -0.00111105881418
H           -4.34163695884125        2.29928272140467        0.00103273055157
H            0.11648300037736       -0.71907069378724       -0.00340403055470
H           -1.19794074413446       -3.23824700244218       -0.00124979237111
H           -3.47449017269230       -4.23872874670185        0.00281720106077
H           -5.46381887612659       -2.81660474310959        0.00555059834384
H           -5.28232408846435       -0.35689000697318        0.00415850911527
H            5.20432442455972       -1.09040984831620       -0.00600711600036
H            4.77443027602012       -3.77700641578316       -0.01242069144430
H            2.05578770784224       -3.99569861866925       -0.01152533701434
H            4.80991324838665        1.11117699851649        0.00236278055104
