38
 energy: -61.686965558218 gnorm: 0.000058662402 xtb: 6.7.1 (edcfbbe)
C            3.13374578571035        2.66235957301857       -0.53489464376801
C            1.77211303067660        2.86308292505998       -0.38885359451762
C            0.94982806407845        1.77736219048433       -0.07333819404729
C           -0.49867112675764        1.90563357075653        0.08782592229401
C           -1.12840078188650        3.12567894105022        0.33122744425072
C           -2.50593778756858        3.23039629853130        0.47293443933911
C           -3.32791578399431        2.12200224384550        0.37610402571467
C           -2.74208798097523        0.88692372456251        0.14284527060309
C           -1.33511094428678        0.78457982506307        0.00892171580156
N           -1.00354323548589       -0.51796650017280       -0.21364612097069
C           -2.13871029072184       -1.28438036901447       -0.22573922750481
C           -2.28404009350387       -2.65159056994302       -0.40652107716027
C           -3.56339378540037       -3.17182938476559       -0.36723155075628
C           -4.67294756145994       -2.35571972897803       -0.15380506141479
C           -4.53411360400985       -0.99393619782338        0.02771197638510
C           -3.25825594768077       -0.44612850753458       -0.00618302670669
N            1.46194220762063        0.55105671842736        0.07530204831431
C            2.76629053898582        0.37358506930592       -0.05517037049476
N            3.22906455983623       -0.92652708124640        0.12805177160735
C            2.53159057165924       -1.98978489023601        0.60614433280924
C            3.38964558561132       -3.05683876710393        0.60952940571881
C            4.59970318714797       -2.53987719268093        0.10939552236949
N            4.48800365748999       -1.26222391913618       -0.17057018100379
C            3.66111724394937        1.39546145628380       -0.36171944861690
H            3.78147747256365        3.49010904682749       -0.78400761284670
H            1.35108549875679        3.84314780767777       -0.53938704017187
H           -0.53361894660128        4.01994750887757        0.43617742315619
H           -2.93877843184978        4.20100571576051        0.66481964273975
H           -4.39788871751723        2.21374650509996        0.48444450780589
H           -0.04590167664086       -0.81348592003356       -0.32588935557468
H           -1.42572330459882       -3.28576997381751       -0.57280105903001
H           -3.70855080642818       -4.23330937770067       -0.50446484559880
H           -5.65633721269621       -2.80142304490783       -0.13015856741412
H           -5.39667137340572       -0.36610793603166        0.19368711838635
H            1.51415083546188       -1.89243987521145        0.92367093183794
H            3.18881521408435       -4.06031462066735        0.92318017096629
H            5.52879451515277       -3.04985028984935       -0.05042422719274
H            4.71023248223178        1.17590939711506       -0.46037085143674
