38
 energy: -61.673515117554 gnorm: 0.000023737065 xtb: 6.7.1 (edcfbbe)
C            2.00798214321598        2.23511045853524        1.31632181473171
C            0.87223374577019        1.45327431142602        1.19582916183063
C            0.97717318795976        0.21187785067801        0.56051451817357
C           -0.16392852554950       -0.69349528760946        0.40100838867015
C            0.04344271587367       -2.06913856572719        0.47336061202908
C           -1.00352502561940       -2.97581975594647        0.38182436356283
C           -2.30447573117328       -2.54618656574489        0.19633735869949
C           -2.54256387306020       -1.18364811820769        0.08093663640906
C           -1.47337370544843       -0.26018461550824        0.17958959483011
N           -1.96845528309369        1.00630883906932       -0.00725823702860
C           -3.32096872583994        0.93898417820723       -0.23507658936117
C           -4.22669676774871        1.95857680475790       -0.48216260364755
C           -5.55174092242254        1.60969289723332       -0.66247864132366
C           -5.96677110836398        0.28115579605485       -0.59859212164499
C           -5.06693862402161       -0.73763836778659       -0.35478163989074
C           -3.72942109029980       -0.41253804017640       -0.17014456313482
N            2.14148538823308       -0.23373860426621        0.10218950684248
C            3.22314386231339        0.51149059427351        0.22350364289646
N            4.39797223332863       -0.05210646895508       -0.27326547969392
C            5.57242798962548        0.57290910519009       -0.56022272825267
C            6.43055910721247       -0.38559888038533       -1.02718049243616
C            5.68187134938035       -1.57816601680192       -0.98412054016946
N            4.47046590639470       -1.35985608602395       -0.53566048860722
C            3.21383998977196        1.77582798538731        0.81655263071436
H            1.95926619146746        3.19537239634021        1.80983762589325
H           -0.06125619107002        1.77467890228135        1.63043280046760
H            1.05540929478725       -2.41562820474554        0.61198618183170
H           -0.79350929622544       -4.03204203523445        0.45802692521580
H           -3.11964066157001       -3.25063090024516        0.12925543523153
H           -1.41195654690662        1.83874102792716       -0.09706680032995
H           -3.90741242164511        2.98930623704479       -0.53317666339907
H           -6.28119688928343        2.38202142957337       -0.85718781938163
H           -7.01146007707545        0.04947892327278       -0.74390137350219
H           -5.39287936796084       -1.76567475434378       -0.30760853140684
H            5.70947647430397        1.62757423179443       -0.43865959827725
H            7.44250125769587       -0.25779514974603       -1.35229104343628
H            5.98833998338588       -2.56739875460185       -1.26023470407172
H            4.11058201366669        2.36490420299557        0.91356446095759
