38
 energy: -61.595023086197 gnorm: 0.000051986635 xtb: 6.7.1 (edcfbbe)
C            3.16020682163750        2.69230489408431       -0.22205678451593
C            1.81345767386808        2.90728440708085       -0.13549475536661
C            0.91018297494837        1.79819266645055       -0.02409764321152
C           -0.48462231689240        1.94265619420998        0.00687830190245
C           -1.18042925018702        3.21151204161934        0.08196427299420
C           -2.53993367162054        3.29121075543623        0.15562578263013
C           -3.37975533351263        2.15569381958928        0.14718659176272
C           -2.76049854396592        0.90232430326210        0.05698443641950
C           -1.36321975558541        0.81378837405036       -0.01799395303477
N           -0.99599193429500       -0.49077305724703       -0.13000097319980
C           -2.09773935586836       -1.28446014253178       -0.11359572880301
C           -2.20895679856686       -2.66813690593201       -0.19517176950402
C           -3.47569820575640       -3.21166809101832       -0.16027092383473
C           -4.61043019742986       -2.39850606383781       -0.04781048911731
C           -4.51135263744942       -1.02355402841956        0.03230877230855
C           -3.24849307379977       -0.44408961389347        0.00058333731473
N            1.42374227453129        0.51822527862324        0.02785269394428
C            2.71884257336173        0.34944836354518       -0.03699905680180
N            3.18066657157196       -0.96364273739120        0.05952548926197
C            2.48434228649902       -2.06007859661132        0.45675667316620
C            3.34783381248873       -3.12147032759073        0.40234634225400
C            4.56150497099898       -2.56623483783283       -0.04628016093217
N            4.44493306782247       -1.27363427990871       -0.24123451142713
C            3.66056372070620        1.38325487629097       -0.17464385273302
H            3.84485743333741        3.52162191338362       -0.32137797438053
H            1.41959041644894        3.90808771885664       -0.18602685247326
H           -0.60271696755482        4.12041767624951        0.09918137145215
H           -3.00215214323983        4.26607434144683        0.22184613171731
H           -4.45085796749698        2.25550099143408        0.19485052083297
H           -0.00394357113479       -0.71632375478530       -0.17814023878432
H           -1.33120155553621       -3.29100503979935       -0.28344484145126
H           -3.60010395641447       -4.28217988547073       -0.22060758122551
H           -5.58425991548977       -2.86492602665187       -0.02489831388949
H           -5.39481520194231       -0.40921386647977        0.11700609952451
H            1.46344984738772       -1.99396852465775        0.77109451228498
H            3.14878629337856       -4.14402862320012        0.64859740384937
H            5.49579099987839       -3.05954016113339       -0.22672785676189
H            4.70941699687806        1.15234718692363       -0.21689738825749
