  42
  -76.7724739980000       0.407055425955557      !
 N          8.1055951655        0.7065867475        0.1177151891
 C          6.9564175449        0.7307353667        0.0842228133
 C          5.5524157044        0.7571968246        0.0580750856
 C          5.0081593759        2.0431739262       -0.0728177229
 N          4.6157088137        3.1090971253       -0.2568740957
 C          4.8499849519       -0.4360691176        0.0195810363
 C          3.4541612630       -0.6257806038        0.0687783938
 C          2.8797963859       -1.8254915631       -0.4367936817
 F          3.7215086667       -2.7489091521       -0.9484398843
 C          1.5428475453       -2.0782228147       -0.4797133251
 C          0.6141447470       -1.1169328223       -0.0101359982
 C         -0.7927777526       -1.3420191529       -0.0751613391
 C         -1.3062131719       -2.6525733281        0.0687073414
 C         -2.6342298941       -2.8875147311        0.2549985141
 C         -3.5786489894       -1.8218729333        0.2684873664
 C         -4.9425229622       -2.0416471340        0.5006956842
 C         -5.8436088004       -1.0012863848        0.4805512427
 C         -5.4238333377        0.3111788422        0.1861563698
 C         -6.3295419584        1.3917243211        0.1288382348
 C         -5.8940271105        2.6679967241       -0.1813224039
 C         -4.5632095640        2.9090246980       -0.4555437108
 C         -3.6159699633        1.8602586328       -0.4087047688
 C         -2.2604649198        2.0572796543       -0.7223817197
 C         -1.3534399465        1.0219701293       -0.6433006733
 C         -1.7360777198       -0.2580097006       -0.2137958558
 C         -3.1152899587       -0.5071242421        0.0050448388
 C         -4.0491041643        0.5532295520       -0.0696657613
 C          1.1533336232        0.0460495528        0.5912889246
 C          2.4992102152        0.2594628458        0.6378586559
 F          2.9379430480        1.3161245241        1.3469354665
 H          5.4461474830       -1.3300996128       -0.1162690229
 H          1.2066241366       -2.9918464560       -0.9425653125
 H         -0.6120075248       -3.4772542073        0.1237354267
 H         -2.9909950874       -3.8926953262        0.4253548860
 H         -5.2818718476       -3.0485371286        0.6968032034
 H         -6.8897164362       -1.1831546586        0.6781985301
 H         -7.3748270299        1.2057949958        0.3265404441
 H         -6.6042863460        3.4805138869       -0.2178532337
 H         -4.2264053818        3.9022548272       -0.7124281617
 H         -1.9303639520        3.0363426540       -1.0367137472
 H         -0.3323359245        1.1955741752       -0.9464590162
 H          0.5065292458        0.7418009341        1.1020501224
  42
  -76.7721439890000       0.287072712245017      !
 N          8.0590392475        0.6592733749       -1.1744324283
 C          7.0416707737        0.5534592526       -0.6486634417
 C          5.7976694778        0.4108814101       -0.0097491038
 C          5.8178996264        0.7838637178        1.3423791497
 N          5.8899312516        1.1732725740        2.4224999665
 C          4.6916588902        0.0667451210       -0.7679385377
 C          3.3714275506       -0.1955607597       -0.3480017111
 C          2.3052651141       -0.1121910824       -1.2869667969
 F          2.6219939991        0.1688161888       -2.5700161286
 C          0.9903064888       -0.2660805909       -0.9699445297
 C          0.6024066954       -0.5978155650        0.3515636136
 C         -0.7688785944       -0.7683737477        0.7092486212
 C         -1.1380804425       -1.7699495598        1.6372492691
 C         -2.4375545496       -2.1309218671        1.8250950641
 C         -3.4947852322       -1.4785758427        1.1284211730
 C         -4.8328264087       -1.8637456179        1.2794460378
 C         -5.8429547938       -1.1978615985        0.6218812384
 C         -5.5618349467       -0.0822751891       -0.1911350549
 C         -6.5797633408        0.6403154422       -0.8496190277
 C         -6.2781307336        1.7452753332       -1.6259964467
 C         -4.9732690701        2.1729162629       -1.7627517863
 C         -3.9172141449        1.4810700135       -1.1255630725
 C         -2.5815611656        1.9098653838       -1.2058962433
 C         -1.5685013759        1.2015521971       -0.5953547913
 C         -1.8217113405        0.0098729646        0.1005277495
 C         -3.1715640302       -0.3842829604        0.2853067744
 C         -4.2141151109        0.3348436503       -0.3454092933
 C          1.6443522664       -0.8187814538        1.2822964164
 C          2.9492637069       -0.6052663663        0.9453624762
 F          3.8811246291       -0.8752655150        1.8763528694
 H          4.8532393786        0.0434011895       -1.8391464232
 H          0.2549169308       -0.2026309109       -1.7561904355
 H         -0.3589317410       -2.3239814128        2.1381667591
 H         -2.6859853159       -2.9439461594        2.4913440064
 H         -5.0653446240       -2.6972244574        1.9264481468
 H         -6.8686005215       -1.5169120999        0.7346802806
 H         -7.6043907834        0.3197811013       -0.7329766674
 H         -7.0728166211        2.2831615964       -2.1211602840
 H         -4.7402784094        3.0446276215       -2.3559073276
 H         -2.3519235889        2.8141135018       -1.7500755492
 H         -0.5618150462        1.5895020121       -0.6298548691
 H          1.4256027602       -1.1082894415        2.2974919992
  42
  -76.7715745557000       0.157144247247309      !
 N          8.1526968825        0.6615833168       -0.2892562848
 C          7.0300945176        0.6462471466       -0.0397168487
 C          5.6546276730        0.6350431952        0.2515020122
 C          5.3003359510        1.5101230863        1.2897444671
 N          5.0951917436        2.1923990871        2.1929821968
 C          4.8423356152       -0.2865438639       -0.3871683756
 C          3.4416306447       -0.4396232221       -0.3218081444
 C          2.8553236332       -1.6849311921       -0.6855118730
 F          3.6834589088       -2.6631010020       -1.1105507271
 C          1.5256225906       -1.9628910517       -0.5986642948
 C          0.6056643376       -0.9603237224       -0.2066677326
 C         -0.7891024570       -1.2393655311       -0.0848205802
 C         -1.2069275886       -2.5091228814        0.3780402474
 C         -2.4898317354       -2.7436326331        0.7695520927
 C         -3.4860199465       -1.7291752965        0.6829325977
 C         -4.7975501649       -1.9359068705        1.1281501142
 C         -5.7536034837       -0.9524005011        1.0044334074
 C         -5.4493329684        0.2756232240        0.3849532686
 C         -6.4176518435        1.2878740306        0.2119944574
 C         -6.0975801750        2.4764531543       -0.4201456302
 C         -4.8245175083        2.6932416999       -0.9066880588
 C         -3.8170191061        1.7125753899       -0.7529724335
 C         -2.5200667677        1.8801179040       -1.2670174402
 C         -1.5484741264        0.9205758171       -1.0750490461
 C         -1.8042708460       -0.2447331383       -0.3371288038
 C         -3.1334525795       -0.4873936348        0.0942160796
 C         -4.1303208353        0.4996327163       -0.0885959140
 C          1.1426773297        0.3119191321        0.0990212095
 C          2.4875095594        0.5428943177        0.0521314079
 F          2.9064873996        1.7948883442        0.3101783518
 H          5.3626877974       -1.0247604317       -0.9867571316
 H          1.1821467173       -2.9403119937       -0.8976610108
 H         -0.4632526286       -3.2795785656        0.5147219527
 H         -2.7664237386       -3.7019010640        1.1840917949
 H         -5.0529731397       -2.8863434768        1.5741183191
 H         -6.7561469551       -1.1192201522        1.3698771846
 H         -7.4196539158        1.1173632345        0.5769026787
 H         -6.8542728724        3.2372152884       -0.5416621246
 H         -4.5798948616        3.6149180927       -1.4133543149
 H         -2.2877848845        2.7752894523       -1.8249060728
 H         -0.5781987941        1.0571521917       -1.5279245125
 H          0.5018092267        1.1099703705        0.4378788563
  42
  -76.7715225354000       0.148727614552117      !
 N          7.9492834517        1.0218129442       -0.4129736583
 C          6.8110026692        0.9354933000       -0.2707273369
 C          5.4226708951        0.8273100922       -0.0912179997
 C          4.7360112688        2.0494021018       -0.1492201606
 N          4.1991364888        3.0587150362       -0.2794049350
 C          4.8279649184       -0.4227019604       -0.0322243225
 C          3.4606336544       -0.6978930989        0.1719354375
 C          2.8854093603       -1.9027369655       -0.3183524828
 F          3.7154373238       -2.7999469830       -0.8914803848
 C          1.5498423004       -2.1690651543       -0.3096714052
 C          0.6340351948       -1.2209741834        0.2097579145
 C         -0.7752208092       -1.4024219179        0.0861698142
 C         -1.3339551574       -2.7010414194        0.1314496094
 C         -2.6791941720       -2.9045313189        0.1839834184
 C         -3.5936319675       -1.8139291818        0.1495715843
 C         -4.9798717638       -2.0071430112        0.2151929597
 C         -5.8500406566       -0.9428981404        0.1509761754
 C         -5.3706546277        0.3718034076       -0.0145452601
 C         -6.2405265941        1.4788682127       -0.1091208029
 C         -5.7456877870        2.7588818020       -0.2869677986
 C         -4.3875022187        2.9775967382       -0.3936247761
 C         -3.4754230558        1.9005077606       -0.3098614121
 C         -2.0907861352        2.0762045465       -0.4691469835
 C         -1.2224687266        1.0101999263       -0.3735409056
 C         -1.6740496459       -0.2819625134       -0.0619799397
 C         -3.0741355626       -0.5010894723        0.0093291756
 C         -3.9708140455        0.5883941786       -0.1005733388
 C          1.1895953949       -0.0963010007        0.8687116131
 C          2.5324089120        0.1331696685        0.8568672558
 F          3.0056470095        1.1479445876        1.6050183339
 H          5.4678132857       -1.2703577642       -0.2430128779
 H          1.2020849316       -3.0729903290       -0.7826430166
 H         -0.6684214711       -3.5472070219        0.2112047804
 H         -3.0759664920       -3.9050328391        0.2754087300
 H         -5.3611826691       -3.0133372525        0.3134033534
 H         -6.9157659780       -1.1059819158        0.2151085006
 H         -7.3054084933        1.3108475794       -0.0454287071
 H         -6.4294903228        3.5919207511       -0.3534442004
 H         -4.0011864522        3.9739850910       -0.5482737603
 H         -1.7060098964        3.0619011454       -0.6851102468
 H         -0.1755026346        1.1725103542       -0.5768042125
 H          0.5587516669        0.5555575107        1.4522615760
