  94
       -127.86955756
 C         -9.7770745094        1.2755224106       -1.0414913199
 C         -8.4036504417        0.8084396937       -0.6655038690
 C         -7.4986387292        1.6691566642       -0.0557633720
 C         -6.2257496220        1.2508346386        0.2758563841
 C         -5.8152901472       -0.0517403491       -0.0052675260
 N         -4.5234085233       -0.4767768419        0.3228244858
 C         -4.3118512887       -1.7772356463        0.7896674685
 C         -5.2503745565       -2.3985558442        1.6121952018
 C         -5.0403269322       -3.6860471372        2.0653042570
 C         -3.8915676684       -4.3895887165        1.7271495301
 C         -3.6666554128       -5.7908840839        2.2089569023
 C         -2.9559290354       -3.7630102277        0.9110783865
 C         -3.1585528099       -2.4812551162        0.4423967030
 C         -3.4465323458        0.4004172738        0.1716129170
 C         -3.4081609432        1.3062581882       -0.8850921929
 C         -2.3454737359        2.1779220969       -1.0320512003
 C         -1.2807971733        2.1736910539       -0.1408738145
 C         -0.0802961289        3.1069852024       -0.2468927491
 C          1.1408898734        2.1997576201       -0.2205840695
 C          1.4072828502        1.3917132859       -1.3236833263
 C          2.4726889137        0.5169579018       -1.3449223764
 C          3.3100368786        0.3938836912       -0.2368250298
 N          4.3867294195       -0.4956652670       -0.2459461914
 C          4.2802228271       -1.7164257287       -0.9207362984
 C          3.0825731535       -2.4304003129       -0.9188918475
 C          2.9856138548       -3.6325397566       -1.5907328597
 C          4.0722139552       -4.1666254797       -2.2728989064
 C          3.9566095986       -5.4635265020       -3.0149417346
 C          5.2649912784       -3.4529469920       -2.2668124601
 C          5.3724369585       -2.2451058593       -1.6075953533
 C          5.5708497336       -0.1730815231        0.4241953277
 C          6.3022640222       -1.1574234237        1.0878341364
 C          7.4761407157       -0.8363136053        1.7391683184
 C          7.9542625935        0.4683325220        1.7605358898
 C          9.2157186102        0.8166475814        2.4908412983
 C          7.2178809527        1.4468569403        1.1030267855
 C          6.0477275722        1.1372166831        0.4396726809
 C          3.0310388421        1.1702769004        0.8849896187
 C          1.9672100735        2.0518200156        0.8880688206
 C         -0.1039678166        3.9518956742       -1.5321898224
 C          1.0733504337        4.9205940566       -1.5749948111
 C          0.9735384887        5.9049237769       -0.4161371219
 C          0.9704863969        5.1388591760        0.9010283402
 C         -0.1500942404        4.1005123130        0.9301616935
 C         -1.3225024850        1.2577165438        0.9085803626
 C         -2.3814997634        0.3914376294        1.0724729823
 C         -6.7179551108       -0.9187695086       -0.6193250612
 C         -7.9911173764       -0.4905535971       -0.9378484806
 H         -9.7710483020        1.6768305477       -2.0558803525
 H        -10.4885535303        0.4535429287       -1.0101069779
 H        -10.1157449661        2.0623462802       -0.3712378849
 H         -7.7979475112        2.6826010987        0.1713473067
 H         -5.5386373072        1.9304944694        0.7580400898
 H         -6.1451652205       -1.8637785843        1.8947487915
 H         -5.7811888528       -4.1482095919        2.7021283200
 H         -3.8413173508       -6.4996215220        1.3987241122
 H         -4.3421801385       -6.0337630542        3.0254675232
 H         -2.6410351529       -5.9209720707        2.5495322892
 H         -2.0554113436       -4.2921348659        0.6328597691
 H         -2.4241573983       -2.0148292298       -0.1974855155
 H         -4.2188069130        1.3235062294       -1.5985977280
 H         -2.3619749763        2.8555366634       -1.8701611826
 H          0.7657032911        1.4351169621       -2.1901499459
 H          2.6596045020       -0.0842999560       -2.2222495611
 H          2.2302554304       -2.0365184913       -0.3851139831
 H          2.0487178205       -4.1713672557       -1.5762591451
 H          4.9040057636       -5.9979333834       -3.0106813372
 H          3.6807651432       -5.2769843459       -4.0537687135
 H          3.1911503311       -6.0967263078       -2.5721845575
 H          6.1227522154       -3.8454305391       -2.7942025123
 H          6.3052866193       -1.7008454268       -1.6204062302
 H          5.9427071603       -2.1758817491        1.0875299218
 H          8.0287152603       -1.6144061591        2.2462995634
 H          9.7383447443        1.6311108537        1.9939784087
 H          9.8784681506       -0.0433439879        2.5519651354
 H          8.9838086562        1.1372003424        3.5074495071
 H          7.5728093350        2.4677847208        1.1007991900
 H          5.4958016723        1.9087983707       -0.0765561401
 H          3.6504637656        1.0734021462        1.7646865956
 H          1.7848581649        2.6112646656        1.7911460022
 H         -1.0254732506        4.5361615186       -1.5510215843
 H         -0.0876827236        3.3153441117       -2.4154628946
 H          1.0700963353        5.4594124507       -2.5253736959
 H          2.0091527444        4.3633238331       -1.5047322465
 H          1.8115766887        6.6047152452       -0.4385852092
 H          0.0511328531        6.4832170836       -0.5096521858
 H          0.8401073068        5.8310207681        1.7366691599
 H          1.9371176148        4.6495099811        1.0165627615
 H         -1.1107406523        4.6176451120        0.8628395117
 H         -0.1424019440        3.5665649904        1.8802872032
 H         -0.5051829896        1.2185881364        1.6125113552
 H         -2.3912198243       -0.3024513467        1.8999476120
 H         -6.4124906792       -1.9297870328       -0.8454110859
 H         -8.6758884189       -1.1774461762       -1.4145541793
