  68
       -110.42789213
 N          4.2621080957        3.6633392053       -1.2074680737
 C          3.2812291958        3.0786016221       -1.0805657546
 C          2.1001720385        2.3323224470       -0.9147416685
 C          1.9091897379        1.1879642989       -1.6705001805
 C          0.8000750368        0.3846186522       -1.4471123166
 C         -0.1299772518        0.7106419305       -0.4757229589
 N         -1.1107660921       -0.2369208409       -0.1545161628
 C         -0.8179277551       -1.5747503126        0.1560270556
 C          0.4710802813       -2.1440374512        0.2376895753
 C          0.6093489336       -3.4967658357       -0.1697143068
 C          1.8181036545       -3.9968172981       -0.5361438108
 C          2.9980401017       -3.1871329611       -0.4926034103
 C          4.2293568491       -3.6252643721       -0.9868290596
 C          5.3548101361       -2.8312970122       -0.9026407131
 C          5.3133190130       -1.5801118088       -0.2592720904
 C          6.4515505630       -0.7552783966       -0.1308964960
 C          6.3756813657        0.4575250949        0.5291738906
 C          5.1927150204        0.8791974372        1.1020709146
 C          4.0254694763        0.0898917842        1.0020521397
 C          2.8140860979        0.4479866235        1.6189119860
 C          1.6724949083       -0.3025166878        1.4293604706
 C          1.6724373101       -1.4185814525        0.5867679712
 C          2.9143970700       -1.9099082252        0.1185251545
 C          4.0829770808       -1.1332297792        0.2873769494
 N         -1.9380147805       -2.2853317312        0.2990877905
 C         -2.9528523672       -1.4332552719        0.1283405267
 C         -4.3469194089       -1.6957065063        0.2602869427
 C         -4.8056131512       -2.9591989169        0.6438585671
 C         -6.1505976662       -3.1878282150        0.8112192192
 C         -7.0498581211       -2.1463375230        0.6028349622
 C         -6.6082268483       -0.8995001702        0.2163902135
 C         -5.2467929393       -0.6319656540        0.0210275575
 C         -4.7533412026        0.6583494493       -0.4359359306
 C         -5.6235762890        1.6953440617       -0.7871229913
 C         -5.1666228905        2.9012826035       -1.2719168617
 C         -3.8030736265        3.1101232195       -1.4548335597
 C         -2.9129324047        2.1234104892       -1.1131903587
 C         -3.3552451639        0.9016358320       -0.5754350993
 C         -2.4762209764       -0.1421173086       -0.1965754509
 C          0.0034213253        1.9080529063        0.2841784819
 C         -0.9008923365        2.2727609638        1.3019380226
 C         -0.7195562165        3.4236606183        2.0229929859
 C          0.3710216578        4.2590060853        1.7611973123
 C          1.2837759639        3.9174240115        0.7973467306
 C          1.1302248395        2.7374375346        0.0472527345
 H          2.6401545141        0.9062980265       -2.4133150896
 H          0.6680557298       -0.5194294655       -2.0232959687
 H         -0.2945282054       -4.0766104231       -0.2753874447
 H          1.9039246002       -5.0055706317       -0.9118501245
 H          4.2912678009       -4.6015334103       -1.4463002784
 H          6.2919101639       -3.1736959166       -1.3169615383
 H          7.3868439307       -1.0875085759       -0.5566017442
 H          7.2559525209        1.0783701566        0.6067530134
 H          5.1433435644        1.8194439216        1.6299289801
 H          2.7830375598        1.3278067444        2.2452196029
 H          0.7596048126       -0.0224925844        1.9344949001
 H         -4.0723035325       -3.7329222793        0.8093725005
 H         -6.5092731492       -4.1616566151        1.1087378439
 H         -8.1074346442       -2.3150682259        0.7446629796
 H         -7.3427930810       -0.1237483582        0.0700733528
 H         -6.6884997434        1.5580920907       -0.6916875439
 H         -5.8706697030        3.6785347295       -1.5288867460
 H         -3.4458957887        4.0416188002       -1.8674708393
 H         -1.8600734868        2.2760882659       -1.2855159019
 H         -1.7428831564        1.6328937562        1.5196287549
 H         -1.4218052572        3.6882122538        2.7993092860
 H          0.4962662277        5.1686166257        2.3290541576
 H          2.1386650466        4.5476086821        0.5989620874
