68
 energy: -110.495203560955 gnorm: 0.000068524822 xtb: 6.7.1 (edcfbbe)
N            0.77501974665780        6.77375256156212       -0.99599042311222
C            0.41194064456189        5.69601440443963       -0.84535796477721
C           -0.05239506397828        4.37348614834591       -0.67666620955202
C           -1.13612893316203        3.93976726819297       -1.41368271619869
C           -1.57800864143024        2.62284241574004       -1.30273894372892
C           -0.96541567713421        1.75093000656457       -0.42827008239306
N           -1.33629369814885        0.39857297941626       -0.41999902462072
C           -0.47962729199494       -0.63521155606288       -0.76177319072091
C            0.92670751428593       -0.39312090821324       -1.06487051644163
C            1.26558704584878        0.59752258590581       -1.98396182126854
C            2.58107219183782        0.92382609348060       -2.23101342335474
C            3.61507878890759        0.27261910405042       -1.55678745151782
C            4.98364629384310        0.60721442914638       -1.76923932840690
C            5.97424184979641       -0.04117923430991       -1.11442016514017
C            5.68517967083326       -1.08343230652395       -0.18549431625430
C            6.69156593674954       -1.76430485481650        0.50156070741375
C            6.37947682743903       -2.77047363109108        1.39741409985206
C            5.06219805904898       -3.12018902161566        1.63053197239317
C            4.02316694402484       -2.46612410559024        0.96633600971156
C            2.65428168196691       -2.79962914311958        1.17952775801697
C            1.66036948423846       -2.15169931691953        0.52879827394495
C            1.94088127641619       -1.10891839710477       -0.40215277837692
C            3.29327047724812       -0.75880931041229       -0.64046513662362
C            4.33191908758429       -1.43538851932230        0.04533155286643
N           -1.08927437707477       -1.78790635334092       -0.77948878197290
C           -2.38744244212451       -1.53664022459625       -0.45309683311398
C           -3.46359829365295       -2.46330068816490       -0.38008546113512
C           -3.27321093405277       -3.81967745489700       -0.66441778487916
C           -4.33420329833061       -4.68931434585966       -0.62966758760375
C           -5.60330506636835       -4.20851166449105       -0.31280080460443
C           -5.80005754245335       -2.87840074253865       -0.02385631623977
C           -4.73968709546905       -1.95929878513322       -0.03799218166389
C           -4.90711095139156       -0.55664203731759        0.30072256472713
C           -6.13941713216511       -0.04402108002656        0.73065664226186
C           -6.29277769932327        1.27064472170737        1.10209492523281
C           -5.20321442891193        2.13575885644379        1.07976461681775
C           -3.98098216610919        1.67672072825259        0.65546764834861
C           -3.81216790951213        0.34847832078564        0.23938720534042
C           -2.57046558988860       -0.17743299947327       -0.21399606029699
C            0.10800802542351        2.18178888162509        0.39796822705553
C            0.70892490053500        1.34313521564311        1.35996947916442
C            1.79016039266123        1.77069866952386        2.07800958649883
C            2.30734130719538        3.05945616060977        1.88332943459908
C            1.71220061513706        3.91622019535287        0.99937156432596
C            0.59697557918020        3.50413807225921        0.24310693693777
H           -1.62452194144878        4.61392982838614       -2.10145261178252
H           -2.39638997529587        2.27536765607038       -1.91641086050925
H            0.48294467306622        1.11006056228284       -2.52498800123427
H            2.81951670707832        1.69472521442755       -2.94944714721468
H            5.20936685598497        1.39629096575981       -2.47248683621891
H            7.00997027865420        0.21776258023057       -1.28300229224548
H            7.72341178652692       -1.49610757785745        0.32514575677100
H            7.17172118517141       -3.28765542752479        1.91910722557218
H            4.82562560125139       -3.90779876576663        2.33156745066993
H            2.42676539454826       -3.59118120153863        1.87949588940315
H            0.62947707857113       -2.42883247562309        0.68600837726190
H           -2.27691918227743       -4.14780041173670       -0.91754691868612
H           -4.19336314047097       -5.73680346234753       -0.85132207988940
H           -6.44318745884474       -4.88792016770595       -0.29371689956228
H           -6.80038730963043       -2.55211840014288        0.21250384703745
H           -6.99909911055902       -0.69186758338633        0.78704174735366
H           -7.25808687005736        1.62912517282264        1.42760334718963
H           -5.31617189358323        3.16116642101878        1.39899700979674
H           -3.13245348141977        2.34341114667862        0.66123381389565
H            0.30197630295271        0.35859625225581        1.53333248370534
H            2.24974175986754        1.11558616398216        2.80248619945495
H            3.16930437984331        3.37734456898422        2.44999959974993
H            2.08632625133022        4.92075480263541        0.86478599798842
