68
 energy: -110.495855057089 gnorm: 0.000060556073 xtb: 6.7.1 (edcfbbe)
N            4.19395961870301        3.64781584463129       -1.59923270099870
C            3.24372940583959        3.03456224752603       -1.40677895367093
C            2.08276811050933        2.26463345248469       -1.17939346799066
C            1.80639087297444        1.19638865748727       -2.00599638633618
C            0.69644759621730        0.39015354153306       -1.75969117617434
C           -0.13305895372527        0.64089718678401       -0.68949364160360
N           -1.12858593604658       -0.29921207772605       -0.37890798146587
C           -0.85089744182678       -1.62070932137732       -0.06047807114264
C            0.50161794177947       -2.15476779513303       -0.16729197239596
C            0.72012236705006       -3.24539442403045       -1.00564532978812
C            1.99995656016206       -3.64650511502710       -1.32662994505321
C            3.10882729824959       -2.93592582203761       -0.85948480278300
C            4.43945111035190       -3.24138853464594       -1.26819196900829
C            5.49287832110332       -2.51231492812781       -0.83119092181900
C            5.31621557880639       -1.42180405210389        0.07082999264530
C            6.38397555658650       -0.64021779272053        0.51542554804367
C            6.17523698642177        0.40798238339656        1.39295398274577
C            4.90560858915324        0.69269125490494        1.86113811036389
C            3.80851453083300       -0.06173144044954        1.44395461434798
C            2.49149024470515        0.16944818450064        1.93617822183340
C            1.43387076669981       -0.52951195237784        1.46342240221488
C            1.59271126106602       -1.51483239065093        0.44547662050983
C            2.90417454700063       -1.86520899044073        0.04529472481926
C            4.00866570211244       -1.12061848628303        0.52450991703483
N           -1.92825028663952       -2.29132480806724        0.23485767001143
C           -2.96377791762105       -1.41315268397130        0.12019400695247
C           -4.34415692372357       -1.64746721702246        0.37051441662409
C           -4.80004253044370       -2.89652980239026        0.80524813557040
C           -6.13168251233774       -3.09319201446594        1.07201696355618
C           -7.02570964139603       -2.03640366421508        0.91012335389598
C           -6.58951845163467       -0.80606451229389        0.47740580863841
C           -5.23802374052634       -0.56711177701556        0.18452412773403
C           -4.75383803047094        0.70991069952602       -0.31067592593423
C           -5.62192078916008        1.77793950479076       -0.57918954406311
C           -5.17150440322785        2.97207750221162       -1.09029360456356
C           -3.82140429744983        3.14688646092410       -1.37912083403961
C           -2.93639857614374        2.12946503233687       -1.12337045948278
C           -3.37203348216099        0.91687350894595       -0.57088272927305
C           -2.49499192361997       -0.16356380529322       -0.27696349951856
C            0.09639601574575        1.75956984832190        0.16112861430669
C           -0.72696943360485        2.05913176186170        1.26686859615538
C           -0.45355004007665        3.12950410201504        2.07201529610479
C            0.65388351933649        3.94911388810449        1.81325302208182
C            1.47705935014186        3.68029062396045        0.75491284333952
C            1.22230233663391        2.58401704866380       -0.09234487479888
H            2.46099127270039        0.97089407009933       -2.83435243894607
H            0.50060994869325       -0.45846116279200       -2.39789581833625
H           -0.13599382576777       -3.75246800619161       -1.42489170372256
H            2.15233165724912       -4.49040239858769       -1.98374934573327
H            4.58444360998716       -4.06781957837672       -1.94950897765112
H            6.49687331426058       -2.74356304650347       -1.15767631477603
H            7.38086211601474       -0.86042983624262        0.16166762277619
H            7.01259328589901        1.00635876404666        1.72051340516877
H            4.75159555559083        1.50560734466853        2.55609489319767
H            2.35568750149742        0.91858104767704        2.70364462272709
H            0.44715210852145       -0.37271028706169        1.87443980197256
H           -4.07298488378743       -3.68442985019343        0.92651774756211
H           -6.48819134714242       -4.05520493171602        1.40910949446251
H           -8.07392636536491       -2.18465174316294        1.12609590128389
H           -7.31738121428227       -0.01774933952977        0.36867355857695
H           -6.67816556564272        1.67052955037161       -0.39258750834396
H           -5.87057331476589        3.77237920534860       -1.28313732218011
H           -3.47199215506992        4.07517281177813       -1.80598809617602
H           -1.89304610997619        2.25674529378866       -1.36811839162758
H           -1.58129237464378        1.43357827593225        1.47751571569435
H           -1.09190225878981        3.34712604050393        2.91505226020883
H            0.85495409707147        4.79161437676230        2.45769259164666
H            2.33646599951899        4.30213774195189        0.55030537044329
