84
 energy: -133.643153285858 gnorm: 0.000095922977 xtb: 6.7.1 (edcfbbe)
O            6.91429950529463        3.62001319671917        0.78797364672418
C            6.66943453727443        2.49915588375992        0.24358029307831
C            7.76916549493198        1.73913763513254       -0.36545652838992
C            7.82662760878166        0.34084138108902       -0.32265212775685
C            8.89818511785945       -0.33181146953641       -0.87420301839301
C            9.93822625391918        0.36688502420985       -1.47102540291930
C            9.90833195448443        1.75422612821775       -1.48850334536684
C            8.84449879745241        2.43378710719287       -0.93350905139053
C            5.32672604206975        1.98186547812390        0.19876366885952
C            4.34789823648261        2.55511835113031        1.04888530911379
C            3.05083374678481        2.12298140395730        1.03774698995320
C            2.64982357313474        1.10650700822048        0.15546001866105
N            1.32502755820148        0.65968904266245        0.13715484354710
C            0.91790023919726       -0.65399186765903        0.15610702206651
C            1.67249866936529       -1.81844797110583        0.23685196682145
C            1.00938476186907       -3.02767700108552        0.25568222839774
C           -0.39295287309460       -3.09236840496409        0.19799558829573
N           -1.02869289673620       -4.33568987442351        0.19905257729351
C           -0.76911229817341       -5.38284993321377        1.06303850698087
C            0.09423620783177       -5.44073115831758        2.14919571852045
C            0.13626207781839       -6.61534918972265        2.87823781344003
C           -0.66632011813971       -7.70454067065749        2.54855243304817
C           -1.55085630501328       -7.64177031646439        1.48640623729953
C           -1.60956731289460       -6.47412383865319        0.74054274450461
C           -2.40997563980473       -6.05651529710934       -0.38094478541971
C           -3.38432395878002       -6.68386631286414       -1.14287935866622
C           -3.95491270599189       -5.98559354651163       -2.19239616261005
C           -3.54909211089365       -4.68839703516805       -2.49500085587210
C           -2.57686766703242       -4.04444311772323       -1.75141408088241
C           -2.02255477064837       -4.72898773653511       -0.67782709231985
C           -1.15648181433587       -1.92833533593966        0.14662657526418
C           -0.50298757991027       -0.70832144018965        0.13454485828676
C           -0.95814036057699        0.65188529412470        0.10566756061466
C           -2.21372823670353        1.23358960276416        0.07297822254165
C           -2.30204615454101        2.62279470204502        0.01591167398980
N           -3.55533885212640        3.23684962082134       -0.01282419632101
C           -3.95225131092698        4.30299317099362        0.77276908027640
C           -3.26451993469578        4.96140960290222        1.78362386232058
C           -3.91603137305917        5.98559868771652        2.44656953581669
C           -5.22288967538988        6.34346422773008        2.12552224023842
C           -5.92339689064262        5.67164095945882        1.13925677094950
C           -5.28949599141261        4.64193996712399        0.46031925732408
C           -5.71032443667212        3.73331226798151       -0.57430271093877
C           -6.88775677442113        3.58731645841779       -1.29227373350256
C           -6.95411538260036        2.60111973696362       -2.26067080008503
C           -5.85865653246635        1.78407723306796       -2.52750968700356
C           -4.67323365398509        1.91432604764233       -1.82681302894455
C           -4.61108242149353        2.88117204919923       -0.83184659046553
C           -1.14117709283110        3.41416052927610       -0.02512632847551
C            0.11495176048234        2.84690807328804        0.01195005168568
C            0.20994851724391        1.46278724016961        0.09974456387834
C            3.59384435492308        0.56389175959172       -0.73067544426428
C            4.89291555074429        0.99738966660227       -0.71995027547392
H            7.04325334950515       -0.21121138103581        0.17621522936980
H            8.93002125008076       -1.41159165429596       -0.83010835176073
H           10.77184619223263       -0.16485603277589       -1.90569700097881
H           10.72154996710400        2.30788876796143       -1.93670263198296
H            8.81346860663544        3.51449145263982       -0.93560887523063
H            4.67182048130540        3.32965517066887        1.72911342551031
H            2.33455180700253        2.53439891588365        1.73410154743173
H            2.74941169149965       -1.78220601964245        0.27965534719744
H            1.57349941239080       -3.94654170957520        0.28661694417953
H            0.70461792842161       -4.59565910002468        2.42794247292760
H            0.80281110521697       -6.68689846560812        3.72491665772559
H           -0.60297072095555       -8.60580856722559        3.13998271139116
H           -2.18727259192712       -8.47952886312641        1.24537650294384
H           -3.68565655682908       -7.69660994575138       -0.92268097420045
H           -4.71825313316859       -6.45465141000424       -2.79513934673071
H           -3.99964195760546       -4.17534414028374       -3.33159518650639
H           -2.25289962495589       -3.04829954271880       -2.01022677864661
H           -2.23367845126208       -1.98172497201613        0.15337653378404
H           -3.10656723796839        0.63061221867624        0.12127601710339
H           -2.25904695461267        4.67962737022055        2.05533946878228
H           -3.40038388899341        6.51579502258495        3.23349581772362
H           -5.69698453085796        7.15059036132837        2.66383368126681
H           -6.94330874941891        5.93700511493887        0.90624493245469
H           -7.73038095165977        4.23420574980241       -1.10161854655484
H           -7.86313797050561        2.46897460457619       -2.82829353532733
H           -5.93367325621085        1.03644144783381       -3.30309489614288
H           -3.82217682497732        1.29373799269099       -2.06098971741739
H           -1.24257431422401        4.48365933292563       -0.12272775250355
H            0.99880807056834        3.46190726676789       -0.05302725897386
H            3.27461540792425       -0.16769807189876       -1.45899433758862
H            5.58725701134794        0.61117948858540       -1.45056057276391
