84
 energy: -133.724611644071 gnorm: 0.000041547004 xtb: 6.7.1 (edcfbbe)
O            6.68255125060910        4.17895470726771        0.27206006180981
C            6.51242176827906        3.00347429090225       -0.01879346752119
C            7.64930896486374        2.12524666743619       -0.38399330878645
C            7.66570197907832        0.76976611269563       -0.05601622861771
C            8.76189268952407       -0.00777280695816       -0.38223157005480
C            9.84478588000708        0.55293531280839       -1.04156276572285
C            9.84067572772201        1.90240323954974       -1.35965258083939
C            8.75400853890768        2.68701535510383       -1.02347289946341
C            5.15981606401439        2.39957216719469       -0.01553919323836
C            4.20403506648630        2.89564330150617        0.87192246342588
C            2.93043601136508        2.36912756163553        0.90372191814362
C            2.57648671334846        1.34871392617588        0.02093015811435
N            1.28584404321591        0.81045138726591        0.04642489313251
C            0.97195537556047       -0.53530453852188        0.07238669252098
C            1.80742371565114       -1.64294361097028        0.12696502330468
C            1.22705234417115       -2.89448831030009        0.16362281764018
C           -0.16408297539723       -3.05543653085749        0.17187424859265
N           -0.71096526628419       -4.35030367686469        0.19916503998317
C           -0.39909078727906       -5.34442654308342        1.10327811784516
C            0.45398276967339       -5.30862059143326        2.19788881658030
C            0.56940321138613       -6.45243547368541        2.96436700521504
C           -0.14781491094368       -7.60817088660641        2.66006489280538
C           -1.01403409580487       -7.64356836562319        1.58540469891408
C           -1.14895155877724       -6.50529185175212        0.80041667729603
C           -1.95006644884467       -6.18441753317488       -0.34747452164098
C           -2.86669765080922       -6.90160480632442       -1.10615954134361
C           -3.46327124328401       -6.28046798932154       -2.18536716367113
C           -3.14646928508454       -4.96507430075040       -2.52032871567438
C           -2.23849248867375       -4.23110260621592       -1.78143264828851
C           -1.65056546233173       -4.84319410269906       -0.68289665462071
C           -1.00334405152457       -1.95111394635497        0.15510010393144
C           -0.43364557092189       -0.68763464877433        0.10212868407441
C           -0.98830059759858        0.63702939543217        0.08625187171112
C           -2.28945555370972        1.11787206052184        0.08757524468970
C           -2.48745145370444        2.48945654041423        0.03136569963886
N           -3.79332723725212        3.01011481588420        0.02336356008016
C           -4.28146615832372        3.97843233805956        0.87582597240269
C           -3.65401325808817        4.62171980316972        1.93387406603820
C           -4.38547317799468        5.54929489860336        2.65051056104978
C           -5.71321072839928        5.83118566741557        2.33346428365612
C           -6.34950879562910        5.17887915635593        1.29605194716728
C           -5.63534497930350        4.24119761483075        0.56065090846587
C           -5.97006021263886        3.38372561244552       -0.54174925779663
C           -7.12519206721458        3.19228888604103       -1.28954587382671
C           -7.10173913127247        2.27539872211458       -2.32164833155359
C           -5.94189603138633        1.56260279633735       -2.62081192513124
C           -4.78092759710085        1.73473533211328       -1.89170220979588
C           -4.80425686428889        2.63948923169628       -0.83913894367053
C           -1.39723958383318        3.36617365844717       -0.03554489739126
C           -0.09763357236429        2.90252129287776       -0.02239651370648
C            0.10669542042834        1.53118397805928        0.05532104564206
C            3.51807592796822        0.87152556748464       -0.89091106251292
C            4.79803757186564        1.38667155017502       -0.90424200475891
H            6.83326773571399        0.33509296386018        0.47706845788453
H            8.77277835708170       -1.05537690458097       -0.12003435187888
H           10.69550609874364       -0.05983082585770       -1.30067290680603
H           10.68680953284297        2.34321951803483       -1.86552267120774
H            8.73577416179607        3.74185193328201       -1.25727019993707
H            4.48929053022306        3.68747691351044        1.54902226930060
H            2.20888602214762        2.73242180352295        1.61929497596742
H            2.88079390211989       -1.53817468812994        0.14136651049218
H            1.85168590878296       -3.77476173462810        0.17910709830239
H            1.00249068061856       -4.41380084630584        2.45066671811635
H            1.22786497847345       -6.45036056459077        3.82108347972538
H           -0.02775943346981       -8.48329471043064        3.28199023292342
H           -1.58028090687045       -8.53486594557797        1.35879094443671
H           -3.10298174125611       -7.92510942813668       -0.85526423348776
H           -4.18060488586047       -6.82010104946692       -2.78645649199792
H           -3.62032423505773       -4.51056911420443       -3.37846423655503
H           -1.98936704190203       -3.21722103671930       -2.05682559009947
H           -2.07425921585571       -2.07654447208993        0.19486865428387
H           -3.13091693053929        0.44421839251463        0.13440988782490
H           -2.63030859533913        4.39944829733022        2.19530896017597
H           -3.91905801496407        6.06612650600878        3.47682970067109
H           -6.25039061708026        6.56547081920708        2.91597632300508
H           -7.38242055390444        5.38802138241517        1.05999675772630
H           -8.02031387284471        3.75408692208379       -1.06706113485970
H           -7.99037042619334        2.11014173754352       -2.91330671587167
H           -5.95064943906267        0.86159011331833       -3.44298014582137
H           -3.88308534444917        1.18892977635827       -2.14041128109292
H           -1.58741462482826        4.42607991946909       -0.11223656188446
H            0.72898266789466        3.59203941920050       -0.09302643369038
H            3.23340399611973        0.10910920607112       -1.59987404559294
H            5.51238402022805        1.02577325484661       -1.62858883775557
