84
 energy: -133.643142880811 gnorm: 0.000060332229 xtb: 6.7.1 (edcfbbe)
O            6.66978105660178        4.03508857084055        0.80875895429653
C            6.50242579151308        2.89426802058507        0.27676185265172
C            7.65737301522517        2.18961412521630       -0.29469207320678
C            7.79031976514052        0.79713023707852       -0.23227815656876
C            8.91333940543648        0.17853188991179       -0.74310609314432
C            9.93107649592667        0.92683590180001       -1.31788910873219
C            9.82493297470432        2.31006208867072       -1.35549076159355
C            8.70911616627064        2.93603088999860       -0.84115374496982
C            5.19315960363179        2.29820434775796        0.21436182172970
C            4.16874709578415        2.81794141346452        1.04458963203026
C            2.90117572261924        2.30645070709517        1.01932221686299
C            2.57586368351970        1.26019642941513        0.14038214534532
N            1.28202466442574        0.73142281876066        0.11209287788439
C            0.95565778723701       -0.60481796532801        0.13766412938613
C            1.77890193588963       -1.72142063557727        0.22282634509605
C            1.19000240066574       -2.96852808374076        0.24593240346618
C           -0.20573249422486       -3.11830033806301        0.18843166506791
N           -0.76528045782450       -4.39773920544113        0.19370977596152
C           -0.44411402841113       -5.42408982709288        1.06204694349291
C            0.42344518450705       -5.42745718326385        2.14636356855037
C            0.53458968316460       -6.59452430157151        2.88028374246985
C           -0.20385945277839       -7.72992367100736        2.55679545665012
C           -1.09281287130012       -7.72286598452583        1.49652663797757
C           -1.22058208660533       -6.56364915177875        0.74614787274002
C           -2.04552258630931       -6.19838739411778       -0.37579068571064
C           -2.98270707701682       -6.88492726899585       -1.13328133622319
C           -3.59274620948741       -6.22667531542391       -2.18644432966070
C           -3.26212359960179       -4.91007711626395       -2.49675525952062
C           -2.32871222351629       -4.20689199653147       -1.75703771397007
C           -1.73555725583347       -4.85231862707254       -0.67997734260283
C           -1.03809422137565       -2.00261789572603        0.13369130337427
C           -0.45941147755826       -0.74544042405307        0.11796566239493
C           -0.99668213876506        0.58427107840080        0.08561899513121
C           -2.28560171450169        1.08821594504504        0.06181568921150
C           -2.45906228594373        2.46925923616762       -0.00042824908706
N           -3.74716537055061        3.00623047184724       -0.01402998266138
C           -4.19445330801184        4.05601205166880        0.76713652812408
C           -3.52926413393167        4.77210131582138        1.75369337246428
C           -4.23016173957138        5.76381096083169        2.41571064846327
C           -5.56336572273920        6.03382884195382        2.11820393983937
C           -6.24064063346647        5.30279687615081        1.15823505090375
C           -5.55702705254887        4.30475261544107        0.48025762723720
C           -5.94154607286680        3.35619120717602       -0.53245723388711
C           -7.12357331665124        3.12381941045043       -1.21947842138604
C           -7.14818601718398        2.12195974286364       -2.17366441055901
C           -6.00757486187711        1.37582731131857       -2.45830958849973
C           -4.81718250977997        1.59255654975815       -1.78816005893366
C           -4.79551720672343        2.57333916544328       -0.80515319217670
C           -1.34851575129042        3.32906248750852       -0.05954858861179
C           -0.05997331121557        2.83973265728837       -0.02715693204813
C            0.11990004027251        1.46468051836296        0.07091213119029
C            3.56358036463386        0.77115564097348       -0.72914049763376
C            4.83380293322614        1.28277821661795       -0.70269663743504
H            7.02392974933355        0.20821212618841        0.25057074030861
H            9.00318098907052       -0.89726582876159       -0.68341923868918
H           10.80626549295216        0.43746891698662       -1.71951992563284
H           10.61974136181615        2.90262563815512       -1.78670230889314
H            8.61861023948845        4.01327441631058       -0.85861476600224
H            4.43464900862520        3.61610547843879        1.72263217567367
H            2.15140903917526        2.67767305690247        1.70287286472237
H            2.85162890610949       -1.62071145809292        0.26558019842314
H            1.80863032981814       -3.85146624471866        0.27994909746526
H            0.98494016067940       -4.54765540516194        2.42022398599253
H            1.20617852521367       -6.62367176265459        3.72551214901418
H           -0.08683851060959       -8.62365861464594        3.15144345344653
H           -1.67974511309594       -8.59731409928460        1.26017648524611
H           -3.22529089101118       -7.91201233521356       -0.90709467383003
H           -4.32737602266554       -6.74273136858210       -2.78645403598746
H           -3.74092469288419       -4.42889797403218       -3.33661652340825
H           -2.06255080494083       -3.19527626869623       -2.02167754800358
H           -2.11014062586695       -2.12073997428228        0.14036031816071
H           -3.13917554020446        0.43199610918661        0.12323647125762
H           -2.50273220981246        4.55916629761330        2.00856439944567
H           -3.73254612085942        6.33791432522570        3.18317165477241
H           -6.07600482998992        6.81848427454896        2.65438499633489
H           -7.28006136846434        5.49931670215157        0.94396013038332
H           -8.00216592211620        3.71655813826905       -1.01550090873723
H           -8.06011275046782        1.92213143069552       -2.71628758452082
H           -6.05101524909701        0.61485731226720       -3.22324187500784
H           -3.93311727628616        1.02616446831923       -2.03662104592217
H           -1.51544318021014        4.38942157432650       -0.16588708116995
H            0.78408818660566        3.50711825240611       -0.10329270078310
H            3.29982375102180        0.01738624915161       -1.45697443224953
H            5.56167157519677        0.93453511154608       -1.41968967185067
