  74
       -116.51097038
 C          0.4305981820       -3.4036760534        0.4002757897
 O          1.2162974824       -2.2376298942        0.3626169300
 C          0.5969770075       -1.0281060440        0.2299205417
 C         -0.7726202737       -0.8675712799        0.1374748030
 C         -1.3668344517        0.3895516827        0.0074133316
 C         -2.7943665410        0.5794801770       -0.1027317136
 C         -3.7370784582       -0.3782057727       -0.1183088112
 C         -5.1643237992       -0.1676031679       -0.2360506452
 C         -5.7516293104        1.0955188787       -0.3673450001
 C         -7.1178743858        1.2392313308       -0.4713285932
 C         -7.9474138921        0.1200998147       -0.4509868117
 N         -9.3335653918        0.2725015531       -0.5685076627
 C         -9.9851464677        1.1153443468       -1.4284200883
 N        -11.2753152651        1.0409267639       -1.3710786912
 C        -11.5431568776        0.1010994887       -0.4053032785
 C        -12.7590734787       -0.3626504754        0.0829404098
 C        -12.7278803280       -1.3080605014        1.0860784649
 C        -11.5223781531       -1.7784773269        1.6100918946
 C        -10.3034896774       -1.3331201489        1.1392430474
 C        -10.3253889573       -0.4011314438        0.1131262904
 C         -7.3810475296       -1.1461526019       -0.3344970290
 C         -6.0137840035       -1.2800701008       -0.2253942267
 C         -0.5247997985        1.5248308200       -0.0243490512
 O         -1.1414498392        2.7359523382       -0.1550863088
 C         -0.3528593956        3.8997239786       -0.2011233646
 C          0.8451418747        1.3640377425        0.0680018637
 C          1.4382730640        0.1068545096        0.1962622547
 C          2.8686624111       -0.0820927291        0.2678671986
 C          3.7957857862        0.8737895911        0.4460771651
 C          5.2288596035        0.6722491252        0.4872195035
 C          5.8414385682       -0.5562204460        0.2181339620
 C          7.2124175930       -0.6911697495        0.2454443736
 C          8.0204733558        0.4048103682        0.5379922659
 N          9.4139908785        0.2752890661        0.5543526786
 C         10.2691699610        0.7938376646        1.4887912974
 N         11.5144013880        0.5051365244        1.2884951674
 C         11.5334426159       -0.2467701814        0.1386041575
 C         12.6024208790       -0.8056888897       -0.5522909489
 C         12.3239348339       -1.5001687549       -1.7105149113
 C         11.0188656322       -1.6319153681       -2.1889131531
 C          9.9422357075       -1.0872573018       -1.5183137929
 C         10.2110989959       -0.4078487022       -0.3400234499
 C          7.4289956732        1.6321929474        0.8240768244
 C          6.0569133097        1.7574927550        0.7964573385
 H         -0.1380219738       -3.5371978936       -0.5259588399
 H          1.1353015381       -4.2265446998        0.5105270414
 H         -0.2549449918       -3.4002898059        1.2539768218
 H         -1.4153793237       -1.7308840205        0.1637895904
 H         -3.0869873801        1.6154053243       -0.1824950334
 H         -3.4500519349       -1.4184233316       -0.0389495259
 H         -5.1324383101        1.9781162674       -0.3829189078
 H         -7.5550365815        2.2232080878       -0.5571403408
 H         -9.4504897046        1.7542766275       -2.1050170136
 H        -13.6865093084        0.0177894351       -0.3134406038
 H        -13.6549792132       -1.6899448245        1.4868818044
 H        -11.5447874946       -2.5072980679        2.4065751593
 H         -9.3765700020       -1.6875386294        1.5641750621
 H         -8.0153996353       -2.0193252830       -0.3507189091
 H         -5.5874051190       -2.2692976581       -0.1373182418
 H          0.2261832715        4.0311766451        0.7186624578
 H         -1.0563237148        4.7248478984       -0.3023372189
 H          0.3230645759        3.8948809702       -1.0623939109
 H          1.4910235979        2.2245186312        0.0238324457
 H          3.1749251321       -1.1135501271        0.1803411494
 H          3.4877600988        1.9015525363        0.5862765741
 H          5.2378601973       -1.4183511401       -0.0168877822
 H          7.6677185674       -1.6512837257        0.0554882123
 H          9.9127219450        1.3648979985        2.3248197986
 H         13.6097992054       -0.6861103837       -0.1876811999
 H         13.1318055779       -1.9466975832       -2.2709056286
 H         10.8486154173       -2.1705448887       -3.1093113096
 H          8.9382185431       -1.1762926205       -1.9049815805
 H          8.0513363317        2.4855509169        1.0505980324
 H          5.6104599863        2.7177411863        1.0124894287
