  168
       -259.24640086
 C         -0.5178966482      -11.3023429533        0.5530312415
 C          0.4810336207      -10.6708623422       -0.1717844131
 C          0.5199252010       -9.2944676801       -0.2582350416
 C         -0.4467687580       -8.5213387809        0.3919073132
 N         -0.4058754965       -7.1413243198        0.3041316491
 C          0.7877185164       -6.4454718522        0.0344051978
 C          1.9322358811       -6.6169367168        0.8117366208
 C          3.0063782848       -5.7656792257        0.6476976657
 C          2.9832950506       -4.7612107457       -0.3186424489
 C          4.0627688199       -3.7715351957       -0.4290498343
 C          4.6681512905       -3.4981533235       -1.6534494626
 C          5.6349089711       -2.5194403300       -1.7541756519
 C          5.9848859607       -1.7588117771       -0.6404170178
 C          6.9752244125       -0.7005538062       -0.7834830564
 N          8.1374324663       -0.8543283788       -1.3608071009
 C          8.7652543958        0.3484612402       -1.2576312544
 C         10.0858858011        0.6774080394       -1.6705242337
 C         10.9217203311       -0.2794067817       -2.2557322873
 C         12.2109277605        0.0435297971       -2.5976667665
 C         12.6820300964        1.3318233077       -2.3517082140
 C         11.8659097377        2.2827935452       -1.7852893796
 C         10.5382581223        1.9954601268       -1.4332019774
 C          9.6365616894        2.9872517829       -0.8737518133
 C         10.0190101394        4.3286843898       -0.7312861622
 C          9.1557933772        5.2877903315       -0.2576381906
 C          7.8488938165        4.9461176587        0.0746981607
 C          7.4369824411        3.6417332128       -0.0409746427
 C          8.3136249858        2.6402051232       -0.4830570522
 C          7.9410022084        1.2723498536       -0.6174346173
 N          6.7931381322        0.5775039824       -0.3010677538
 C          5.6519223924        1.0120099952        0.3960326387
 C          4.3884653372        0.8469620938       -0.1615540004
 C          3.2664767746        1.2706029280        0.5198111710
 C          3.3850953796        1.8782354657        1.7694712739
 N          2.2615299329        2.3694547964        2.4402820392
 C          2.3684871753        3.5948548140        3.1143673893
 C          3.1173063524        4.6320414705        2.5585059614
 C          3.2295339877        5.8411568893        3.2165855514
 C          2.5955905807        6.0385553780        4.4321940629
 C          1.8531861647        5.0106440232        4.9898926558
 C          1.7411158952        3.7952730002        4.3425366721
 C          1.0611016465        1.6523574494        2.4542047202
 C         -0.1625673908        2.3210592574        2.5165188438
 C         -1.3430121617        1.6082832627        2.5745987935
 C         -1.3295273485        0.2235702948        2.5638349422
 C         -0.1201809229       -0.4450765605        2.4748524031
 C          1.0673759364        0.2581038793        2.4214873532
 C          4.6541916822        2.0127305002        2.3379347801
 C          5.7742453657        1.5770819473        1.6635877622
 C          5.3910413735       -2.0378025099        0.5887645815
 C          4.4541957784       -3.0445555562        0.6933714201
 C          1.8714146565       -4.6588448073       -1.1544913405
 C          0.7789162880       -5.4743230632       -0.9682291068
 C         -1.5119858375       -6.3174353644        0.4914105179
 C         -2.7831905408       -6.5972755263       -0.0361535278
 C         -3.7856404251       -5.6670782844        0.0349071471
 C         -3.5922155728       -4.3928229356        0.6305206086
 C         -4.5602393354       -3.3525425452        0.5577711719
 C         -5.9299648146       -3.5706280813        0.2260279227
 C         -6.8014666207       -2.5412837004        0.0638076924
 C         -6.3776730196       -1.1823858234        0.1646929344
 C         -7.2789793865       -0.1585788686       -0.1657231474
 N         -8.6073496479       -0.3187326081       -0.1893992960
 C         -9.1291005125        0.8799091493       -0.4449919721
 C        -10.5091375878        1.2294322091       -0.5081623798
 C        -11.4989672791        0.2746144011       -0.2616033441
 C        -12.8283180626        0.6263077082       -0.2915371991
 C        -13.1758424211        1.9456077914       -0.5639300014
 C        -12.2072436594        2.8940038300       -0.8132420455
 C        -10.8429293845        2.5717452203       -0.8027289760
 C         -9.7991233025        3.5393482849       -1.0941635444
 C        -10.1007254674        4.8519386477       -1.4690769087
 C         -9.1232874957        5.7695120363       -1.7854274960
 C         -7.7806755763        5.3962490282       -1.7556089454
 C         -7.4371060530        4.1225971430       -1.3856417059
 C         -8.4169272992        3.1731361519       -1.0310330152
 C         -8.1129112467        1.8509031121       -0.6448588269
 N         -6.9327108294        1.1766050755       -0.4632432727
 C         -5.6116224422        1.5960072724       -0.6730532770
 C         -4.8394721239        0.9513605942       -1.6404999166
 C         -3.5045355826        1.2566260810       -1.7833960327
 C         -2.9007445641        2.2089577956       -0.9591786702
 N         -1.5347631221        2.4781377814       -1.0743270470
 C         -1.0672668927        3.7865406740       -0.9036746716
 C         -1.8306439663        4.8678314184       -1.3451749431
 C         -1.3850793608        6.1610808267       -1.1543113383
 C         -0.1730479942        6.4006344764       -0.5277510505
 C          0.5965978087        5.3309598516       -0.1009947336
 C          0.1592033417        4.0342514529       -0.2874333592
 C         -0.6383253032        1.4325797530       -1.3261877078
 C         -0.8533453704        0.1648511471       -0.7845423734
 C          0.0494120361       -0.8553960637       -1.0130010830
 C          1.1768690183       -0.6341925610       -1.7873808326
 C          1.3834725129        0.6161403130       -2.3484740779
 C          0.4865515724        1.6430290298       -2.1243126187
 C         -3.6864843579        2.8784786685       -0.0164204419
 C         -5.0240287077        2.5775263804        0.1259508669
 C         -5.0441918018       -0.9636122287        0.6122725028
 C         -4.1889433044       -2.0000272287        0.7990121945
 C         -2.3330391983       -4.1824660841        1.2534189096
 C         -1.3304797628       -5.1013687941        1.1745998519
 C         -1.4446964417       -9.1627137114        1.1315671476
 C         -1.4766686800      -10.5403114158        1.2027772720
 H         -0.5469836909      -12.3793672493        0.6137165527
 H          1.2315958588      -11.2569062960       -0.6812613732
 H          1.2892811319       -8.8046447259       -0.8369647362
 H          1.9497804601       -7.3864120220        1.5698927672
 H          3.8763591883       -5.8720089500        1.2791422772
 H          4.3855936864       -4.0718394076       -2.5245112875
 H          6.1209500383       -2.3179901278       -2.6965221825
 H         10.5212423707       -1.2685873328       -2.4148290651
 H         12.8614024939       -0.6926537923       -3.0464718760
 H         13.7000957728        1.5873760560       -2.6085168430
 H         12.2760224110        3.2648018114       -1.6096957161
 H         11.0145093699        4.6340844773       -1.0100777038
 H          9.4874174713        6.3111729788       -0.1610273131
 H          7.1590751169        5.7037611005        0.4164044960
 H          6.4157157854        3.3864987252        0.1931762205
 H          4.2878699696        0.3997023401       -1.1384603297
 H          2.2916528396        1.1437961323        0.0751554604
 H          3.6109738626        4.4806083109        1.6090532775
 H          3.8100632145        6.6371368094        2.7736500030
 H          2.6820387711        6.9855552517        4.9425556976
 H          1.3639357167        5.1525454910        5.9421411571
 H          1.1711953832        2.9919302323        4.7857056609
 H         -0.1812693750        3.4009164929        2.5233409887
 H         -2.2828398201        2.1374207664        2.6292769888
 H         -2.2575548127       -0.3236893561        2.6312306419
 H         -0.0950882916       -1.5249632015        2.4608813772
 H          2.0078691558       -0.2704265868        2.3681280918
 H          4.7539114525        2.4624155564        3.3145005437
 H          6.7526309297        1.6782298396        2.1099325797
 H          5.6747224821       -1.4737181222        1.4656096897
 H          3.9947237958       -3.2567819443        1.6481741898
 H          1.8516416113       -3.9037848285       -1.9261755920
 H         -0.1028168986       -5.3591596404       -1.5815294830
 H         -2.9467098203       -7.5352770372       -0.5473351502
 H         -4.7308485297       -5.8916183297       -0.4337104247
 H         -6.2900838505       -4.5829629690        0.1216773133
 H         -7.8354279870       -2.7184363664       -0.1871972664
 H        -11.1825544371       -0.7335214097       -0.0436190146
 H        -13.5960246526       -0.1087554544       -0.1010633496
 H        -14.2174576452        2.2329747165       -0.5810992198
 H        -12.5277745280        3.9035867931       -1.0159722804
 H        -11.1293433844        5.1699470199       -1.5262769770
 H         -9.3985191110        6.7744668708       -2.0688005919
 H         -7.0145031492        6.1078289322       -2.0264672814
 H         -6.3987490940        3.8326893306       -1.3824633915
 H         -5.2979130796        0.2039757562       -2.2702305679
 H         -2.9134935792        0.7527291592       -2.5331353751
 H         -2.7723733282        4.6858014785       -1.8421049263
 H         -1.9867744914        6.9874519796       -1.5028824818
 H          0.1706235089        7.4123977433       -0.3762397521
 H          1.5402376084        5.5071248545        0.3936944075
 H          0.7610020723        3.2050199051        0.0502382646
 H         -1.7276948845       -0.0102982594       -0.1772461115
 H         -0.1252791840       -1.8285774066       -0.5778403356
 H          1.8924322571       -1.4261993914       -1.9493847489
 H          2.2489761634        0.7955222903       -2.9695129091
 H          0.6519290964        2.6147566083       -2.5659691229
 H         -3.2317858818        3.6223172187        0.6206465485
 H         -5.6167488142        3.0747584818        0.8801038671
 H         -4.7143966578        0.0346165374        0.8510002639
 H         -3.1809203581       -1.7772013651        1.1098040193
 H         -2.1623665165       -3.2881891551        1.8303578857
 H         -0.3803625164       -4.9104008978        1.6534427876
 H         -2.1774885841       -8.5709747768        1.6594793317
 H         -2.2516194718      -11.0243924968        1.7785142601
