  30
  -58.6476770806000       0.554064156061442      !
 O          1.3327038923        3.4611504616        0.0046846937
 C          1.7292626627        2.3118393156        0.0029198901
 N          3.0820968136        2.0546242766       -0.0014946243
 C          3.6397642633        0.8064124821       -0.0026062159
 C          4.9926999310        0.4722020270       -0.0084247877
 C          5.1947566051       -0.8845126391       -0.0080735376
 S          3.7222493237       -1.7999570193       -0.0014745775
 C          2.7809802439       -0.3300512622        0.0015550109
 C          1.4051178998       -0.2001886700        0.0044459403
 C          0.5039824131       -1.3096597542        0.0055510440
 C         -0.8479942532       -1.1268182448        0.0055821795
 C         -1.7291574769       -2.3119938824        0.0041313438
 O         -1.3326095763       -3.4612517932        0.0045840392
 N         -3.0819278542       -2.0545554162       -0.0017263682
 C         -3.6397404687       -0.8063789282       -0.0028425410
 C         -4.9927346005       -0.4722932722       -0.0089547514
 C         -5.1949426052        0.8844800484       -0.0082141558
 S         -3.7223221548        1.8001162254       -0.0012373529
 C         -2.7811231736        0.3301086378        0.0014817603
 C         -1.4051194376        0.2001160103        0.0053370964
 C         -0.5039357911        1.3096875370        0.0061287234
 C          0.8480391339        1.1266971051        0.0048672907
 H          3.6908548197        2.8643699860       -0.0044206711
 H          5.7931241165        1.1898592580       -0.0137363513
 H          6.1295025796       -1.4067646211       -0.0122119720
 H          0.9056783045       -2.3120544637        0.0065780365
 H         -3.6906012688       -2.8642499079       -0.0054756706
 H         -5.7930999033       -1.1900280946       -0.0146489254
 H         -6.1298366649        1.4063484388       -0.0129115692
 H         -0.9054263841        2.3123185043        0.0063641374
  30
  -58.6474719148000       0.445935843938558      !
 O          1.3353176108        3.4592624370        0.1641775353
 C          1.7301149528        2.3111340335        0.1021519916
 N          3.0813281528        2.0544178037        0.0338567117
 C          3.6369183025        0.8069714065       -0.0332216907
 C          4.9867345050        0.4738051090       -0.1306611401
 C          5.1873748957       -0.8824719034       -0.1731451514
 S          3.7177241570       -1.7990088343       -0.0904859104
 C          2.7791978298       -0.3298392358       -0.0021843783
 C          1.4047602363       -0.2003333159        0.0634944332
 C          0.5037780975       -1.3098422028        0.0898268461
 C         -0.8481514018       -1.1265162692        0.0898358651
 C         -1.7300803266       -2.3110856312        0.1023361847
 O         -1.3352404436       -3.4591502932        0.1646788317
 N         -3.0812754171       -2.0544268475        0.0336864779
 C         -3.6368802828       -0.8069828090       -0.0332291707
 C         -4.9866816569       -0.4738967964       -0.1312178022
 C         -5.1874605121        0.8823730748       -0.1731979071
 S         -3.7178216572        1.7989555730       -0.0901919873
 C         -2.7792037421        0.3298577248       -0.0018747951
 C         -1.4047502721        0.2003849112        0.0637471036
 C         -0.5037599459        1.3098905894        0.0898945626
 C          0.8481762958        1.1265733224        0.0896008239
 H          3.6903219944        2.8639368948        0.0324737541
 H          5.7860810097        1.1917281317       -0.1683761861
 H          6.1200454063       -1.4039292735       -0.2448567438
 H          0.9052697024       -2.3121739844        0.1037392753
 H         -3.6903337240       -2.8639007803        0.0323040248
 H         -5.7858755562       -1.1919019348       -0.1701615525
 H         -6.1201553038        1.4038013879       -0.2453548706
 H         -0.9052459765        2.3122172455        0.1044803707
