  80
  -123.922316927100       0.304609341984292      !
 O          2.1636018431        5.2661121474        1.3164404632
 C          1.4612495091        4.4980280714        0.6604044161
 C          1.8754684434        3.1104387923        0.3972804052
 C          2.7164759634        2.4489526479        1.3016216391
 C          3.1734757729        1.1798902231        1.0434130001
 C          2.8499085718        0.5367663205       -0.1604512632
 N          3.3746640700       -0.7213399393       -0.4439217055
 C          4.6311071115       -1.0761813207        0.0669802399
 C          5.6811825566       -0.1573123236        0.0745632901
 C          6.9145280711       -0.5204853880        0.5787738465
 C          7.1194722854       -1.7970027268        1.0790776808
 C          6.0791535720       -2.7133071897        1.0728331062
 C          4.8418391117       -2.3599811117        0.5718332504
 C          2.6978754984       -1.6270015334       -1.2594866193
 C          3.4061618595       -2.4902895726       -2.0999560938
 C          2.7298964229       -3.3834608184       -2.9063114275
 C          1.3443136881       -3.4261434880       -2.9017949905
 C          0.6370358993       -2.5685719170       -2.0739518135
 C          1.3033935386       -1.6820858963       -1.2531847619
 C          2.0223177072        1.2026142067       -1.0753587075
 C          1.5340914213        2.4565026860       -0.7937280662
 C          0.1656872247        4.9223888602        0.0826213809
 C          0.0071402790        6.2119957191       -0.4354830822
 C         -1.2321012367        6.6175166198       -0.9003922738
 C         -2.3149137532        5.7641493070       -0.8429560219
 C         -2.1732507874        4.4680298216       -0.3194504521
 C         -3.3705274188        3.6303377010       -0.1571582164
 O         -4.5038877127        4.1486353902       -0.0890392438
 C         -3.2167762371        2.1847455246       -0.0583294729
 C         -4.2210877801        1.4441512670        0.5992026285
 C         -4.1047539293        0.0900531880        0.7692111847
 C         -2.9907378478       -0.5930477058        0.2573968362
 N         -2.8372265710       -1.9701601491        0.4631950279
 C         -1.5961382390       -2.4721117671        0.8370358087
 C         -0.7219735972       -1.6911611705        1.6013534200
 C          0.5131505988       -2.1850924751        1.9685711421
 C          0.9031683372       -3.4591736898        1.5841021979
 C          0.0459795950       -4.2362868479        0.8200487731
 C         -1.1905679640       -3.7527023639        0.4452512098
 C         -3.9453646611       -2.8011410775        0.3146254486
 C         -4.9098155195       -2.5051848079       -0.6534598034
 C         -6.0172292286       -3.3149590339       -0.8009181585
 C         -6.1848167425       -4.4284269204        0.0085466570
 C         -5.2353046304       -4.7230422366        0.9755802280
 C         -4.1244120528       -3.9194913424        1.1340678961
 C         -2.0388562153        0.1205467770       -0.4836317112
 C         -2.1540191763        1.4767269962       -0.6500122991
 C         -0.9227479271        4.0609614769        0.1433756392
 H          2.9845378149        2.9543676970        2.2166796094
 H          3.7911853238        0.6697014997        1.7671812006
 H          5.5220102967        0.8325415333       -0.3267304680
 H          7.7223392274        0.1954350088        0.5732279425
 H          8.0851463746       -2.0764249117        1.4707354322
 H          6.2310589298       -3.7072102679        1.4660531063
 H          4.0249210764       -3.0668402755        0.5696309362
 H          4.4848633914       -2.4443950030       -2.1245733602
 H          3.2887475676       -4.0431510512       -3.5526292321
 H          0.8196795010       -4.1205142404       -3.5393747760
 H         -0.4424758382       -2.5989713710       -2.0631066716
 H          0.7628099965       -1.0361707791       -0.5814087621
 H          1.7954193431        0.7363776996       -2.0222370069
 H          0.9206890519        2.9682603746       -1.5187892277
 H          0.8567054799        6.8763934989       -0.4592716220
 H         -1.3555350474        7.6130431219       -1.3011593360
 H         -3.2888411602        6.0780547893       -1.1840781881
 H         -5.0635682682        1.9839964589        1.0021132256
 H         -4.8526311515       -0.4601520619        1.3211311668
 H         -1.0301844635       -0.7049741593        1.9137056061
 H          1.1732761779       -1.5728541551        2.5651519792
 H          1.8656561759       -3.8451780287        1.8824830688
 H          0.3469139683       -5.2243725028        0.5063034720
 H         -1.8472948315       -4.3543937627       -0.1654885198
 H         -4.7708923522       -1.6445685599       -1.2906720082
 H         -6.7507241284       -3.0792281910       -1.5570074143
 H         -7.0512435157       -5.0599703970       -0.1108258576
 H         -5.3666424014       -5.5803445562        1.6183928389
 H         -3.3981843749       -4.1361573432        1.9037351013
 H         -1.2287327852       -0.4154682323       -0.9513068685
 H         -1.4401872366        1.9988545393       -1.2651169742
 H         -0.8063610412        3.1031749746        0.6247200135
  80
  -123.922260683300       0.287008895668876      !
 O          2.2460134652        5.3986848297       -1.2263004054
 C          1.4365569362        4.5665796684       -0.7771585488
 C          1.7225848789        3.1315589134       -0.8170439717
 C          1.2607688381        2.2316176856        0.1603079816
 C          1.4619653388        0.8803461091        0.0254511299
 C          2.1388771670        0.3730505370       -1.0912987298
 N          2.2563722287       -1.0085215713       -1.2912880032
 C          2.5586451299       -1.8445283585       -0.2235672496
 C          3.3565155718       -1.3791354938        0.8274696536
 C          3.6703060125       -2.2089979633        1.8842621103
 C          3.2030813677       -3.5142073211        1.9163732765
 C          2.4012668634       -3.9784376370        0.8832879486
 C          2.0736965715       -3.1558979250       -0.1759444882
 C          2.0546982651       -1.5109219736       -2.5740331593
 C          2.7620142713       -2.6254428046       -3.0335116392
 C          2.5468425630       -3.1073485001       -4.3088681487
 C          1.6367314968       -2.4877609077       -5.1520924991
 C          0.9442035671       -1.3709436554       -4.7088788731
 C          1.1464304656       -0.8840418651       -3.4335813460
 C          2.6855240940        1.2708330374       -2.0206678783
 C          2.4959480349        2.6212368677       -1.8753109498
 C          0.1292789273        4.9903984481       -0.2520389333
 C         -0.0757404988        6.3339859229        0.1104691310
 C         -1.3260558669        6.7650773238        0.5070184826
 C         -2.3945757498        5.8857077005        0.5635547786
 C         -2.2036008828        4.5431098724        0.2150546801
 C         -3.3250779550        3.5766565365        0.2155017237
 O         -4.4785699679        3.8992953860       -0.0668970811
 C         -2.9402455081        2.1953169198        0.5570445251
 C         -3.5402131881        1.1037214100       -0.0816078526
 C         -3.1208402207       -0.1800185787        0.1784945286
 C         -2.1082930271       -0.4170695763        1.1164694392
 N         -1.6472453752       -1.7118127118        1.3694969925
 C         -1.3464727076       -2.0765607099        2.6855191011
 C         -2.1542022406       -1.6388745518        3.7369239453
 C         -1.8543775182       -1.9993980258        5.0355695613
 C         -0.7510256797       -2.7943678847        5.3065155885
 C          0.0571032726       -3.2242845522        4.2655222754
 C         -0.2326657218       -2.8701418036        2.9628852316
 C         -1.4899784272       -2.6208510721        0.3292004536
 C         -1.1676684546       -2.1789918106       -0.9574575029
 C         -1.0387516443       -3.0846559864       -1.9914199465
 C         -1.2094798214       -4.4418329396       -1.7644055154
 C         -1.5195910166       -4.8876146427       -0.4883732470
 C         -1.6649243896       -3.9906437805        0.5499664164
 C         -1.5598757153        0.6657571009        1.8136336968
 C         -1.9613144864        1.9481775748        1.5291892397
 C         -0.9529378925        4.1148007257       -0.2135285919
 H          0.7477831991        2.6097206104        1.0284229006
 H          1.0767245906        0.1956044584        0.7657266448
 H          3.7426808968       -0.3718085149        0.7913816192
 H          4.2962683888       -1.8390995053        2.6820591771
 H          3.4599324216       -4.1632237380        2.7389387622
 H          2.0209011088       -4.9893605406        0.9045498546
 H          1.4290081076       -3.5153122689       -0.9623536580
 H          3.4920620344       -3.0942213773       -2.3907715296
 H          3.1026379533       -3.9665169946       -4.6526111664
 H          1.4730470423       -2.8674307419       -6.1485722677
 H          0.2344324524       -0.8799702231       -5.3580114928
 H          0.5948928753       -0.0244549435       -3.0855609487
 H          3.2575565943        0.8855398453       -2.8517520595
 H          2.9114189099        3.3170930593       -2.5872812976
 H          0.7572086261        7.0170279205        0.0581752329
 H         -1.4731912411        7.8017610837        0.7729714256
 H         -3.3750192242        6.2166143197        0.8679549213
 H         -4.3259636896        1.2909111767       -0.7972224845
 H         -3.5761034354       -1.0166236075       -0.3303662653
 H         -3.0189665041       -1.0289306191        3.5219236004
 H         -2.4905712332       -1.6641089534        5.8405325984
 H         -0.5223174615       -3.0750948853        6.3228072438
 H          0.9246840156       -3.8339389676        4.4681383606
 H          0.4045676502       -3.1899303440        2.1535067047
 H         -1.0110974608       -1.1263814873       -1.1337400851
 H         -0.7893885044       -2.7304295428       -2.9800226786
 H         -1.1032593082       -5.1444488831       -2.5762883332
 H         -1.6636812632       -5.9415692027       -0.3042954618
 H         -1.9346901760       -4.3397583220        1.5353020725
 H         -0.8048120011        0.4844171421        2.5640258872
 H         -1.5299080749        2.7792510635        2.0640452759
 H         -0.8434561417        3.1074068012       -0.5794259767
  80
  -123.922156633400       0.257085353155030      !
 O          2.1048262930        5.2723795099       -1.3469113461
 C          1.2912697118        4.4557247212       -0.8648014385
 C          1.5573573137        3.0222707271       -0.9103283167
 C          1.0685505454        2.1028501500        0.0385519770
 C          1.3104460261        0.7580591282       -0.0911315727
 C          2.0622013774        0.2680268019       -1.1696884100
 N          2.2606952958       -1.1053031869       -1.3446263164
 C          2.5077021321       -1.9254518110       -0.2495266418
 C          3.1974069500       -1.4324155928        0.8632688218
 C          3.4695079905       -2.2581938406        1.9350253092
 C          3.0638212369       -3.5843725568        1.9224711510
 C          2.3606933136       -4.0742804905        0.8305399640
 C          2.0786446951       -3.2572316440       -0.2450844320
 C          2.2484715529       -1.6281585536       -2.6353272810
 C          3.0855194758       -2.6907505706       -2.9889480538
 C          3.0672510944       -3.1924799120       -4.2743461703
 C          2.2260495905       -2.6455758138       -5.2317300309
 C          1.4029530443       -1.5824321492       -4.8920237760
 C          1.4094723241       -1.0752621028       -3.6086350359
 C          2.6216029386        1.1856466037       -2.0747145146
 C          2.3859627965        2.5275958605       -1.9387839286
 C          0.0229370361        4.9255374887       -0.2886151958
 C         -0.1051694065        6.2720833539        0.0994194069
 C         -1.3148997657        6.7551350243        0.5551758267
 C         -2.4199009847        5.9246484039        0.6499479558
 C         -2.3055830231        4.5811019739        0.2766250362
 C         -3.4599917326        3.6554338434        0.3429323446
 O         -4.6160395219        4.0035664658        0.1277638543
 C         -3.0767484539        2.2667209848        0.6790625579
 C         -3.6514362021        1.1744137256        0.0251409800
 C         -3.1957552464       -0.1031215422        0.2623886736
 C         -2.1741197547       -0.3270166342        1.1916232358
 N         -1.6679336088       -1.6109009971        1.4130998289
 C         -1.3471251697       -1.9895218284        2.7206712192
 C         -2.1659601437       -1.6000666373        3.7823409650
 C         -1.8425172709       -1.9622769182        5.0747801173
 C         -0.7047722504       -2.7127831952        5.3290293435
 C          0.1114303717       -3.0984623334        4.2773685887
 C         -0.2014881277       -2.7415963566        2.9806097678
 C         -1.4640668237       -2.4818341121        0.3478208203
 C         -1.1526269822       -1.9892809007       -0.9229122892
 C         -0.9787565767       -2.8586275049       -1.9808536993
 C         -1.0913184586       -4.2278660477       -1.7938462380
 C         -1.3885534002       -4.7231335451       -0.5333308478
 C         -1.5794260981       -3.8630830472        0.5288202442
 C         -1.6552127204        0.7555835437        1.9088187069
 C         -2.0912408117        2.0318207609        1.6451324968
 C         -1.0969503880        4.1013066811       -0.2150169208
 H          0.5121701758        2.4603942752        0.8882791573
 H          0.9093427626        0.0636457480        0.6318537413
 H          3.5385385561       -0.4084219394        0.8624751343
 H          4.0150271178       -1.8679602957        2.7807318147
 H          3.2903189224       -4.2301890015        2.7564170480
 H          2.0226258691       -5.0998390756        0.8194453015
 H          1.5133966566       -3.6361633779       -1.0815833859
 H          3.7625968658       -3.1013324516       -2.2548652898
 H          3.7235380332       -4.0089348089       -4.5349085976
 H          2.2168479215       -3.0399050296       -6.2357450793
 H          0.7455570823       -1.1492825149       -5.6310732340
 H          0.7608666024       -0.2550714485       -3.3420487859
 H          3.2502561683        0.8210605367       -2.8735591228
 H          2.8167225559        3.2367235165       -2.6280409680
 H          0.7561132850        6.9163310898        0.0203346295
 H         -1.4011275331        7.7937187264        0.8397170592
 H         -3.3687190717        6.2943453766        1.0057643422
 H         -4.4414447556        1.3514527116       -0.6885065160
 H         -3.6259101376       -0.9427108309       -0.2629660733
 H         -3.0558548235       -1.0227483109        3.5806540041
 H         -2.4859198481       -1.6620921555        5.8877087165
 H         -0.4557727084       -2.9931426761        6.3406457156
 H          1.0050916554       -3.6736678575        4.4669056278
 H          0.4420512911       -3.0273477778        2.1638422179
 H         -1.0426939491       -0.9259382023       -1.0688549444
 H         -0.7397802636       -2.4674381174       -2.9581815578
 H         -0.9494007469       -4.9014029695       -2.6249646237
 H         -1.4865516425       -5.7872430241       -0.3798924379
 H         -1.8389387174       -4.2509083327        1.5023509242
 H         -0.8901476958        0.5824818593        2.6508520328
 H         -1.6757138530        2.8667840799        2.1871850741
 H         -1.0515484411        3.0963860398       -0.6006756861
  80
  -123.921655622400       0.151296409191803      !
 O          1.9219495098        5.2309147595       -1.6526126868
 C          1.1662190909        4.4258545009       -1.0634637065
 C          1.4429883237        2.9975232454       -1.0804855310
 C          1.0057453727        2.0945060763       -0.0895898386
 C          1.2818362784        0.7542820834       -0.1841200277
 C          2.0259205933        0.2473536707       -1.2622328107
 N          2.2806026080       -1.1211820695       -1.3733510659
 C          2.5369140231       -1.8773722687       -0.2320962984
 C          3.2303175127       -1.3197060502        0.8466638685
 C          3.5185880573       -2.0853384057        1.9581206606
 C          3.1280089024       -3.4145206376        2.0165730500
 C          2.4194233701       -3.9675375259        0.9588087080
 C          2.1168593807       -3.2093025937       -0.1543186344
 C          2.3411813575       -1.7155076803       -2.6302695731
 C          3.2195881109       -2.7759467574       -2.8770622766
 C          3.2743880438       -3.3593419434       -4.1259430076
 C          2.4657648290       -2.8981457384       -5.1540048336
 C          1.6047354074       -1.8360369279       -4.9221638538
 C          1.5395634598       -1.2459963848       -3.6763949039
 C          2.5298051272        1.1506933356       -2.2144679031
 C          2.2511264450        2.4870207231       -2.1204436737
 C         -0.0355089736        4.9185210479       -0.3733457354
 C         -0.0981692341        6.2666829248        0.0238091863
 C         -1.2453260802        6.7725793095        0.6005940599
 C         -2.3514494071        5.9640139838        0.8046840039
 C         -2.3036283378        4.6204371456        0.4168334299
 C         -3.4674778341        3.7230850136        0.5927295907
 O         -4.6299094540        4.1003942746        0.5166103836
 C         -3.0835144073        2.3160168778        0.8604656092
 C         -3.7028793291        1.2539145541        0.2010417963
 C         -3.2519090611       -0.0364125754        0.3754963514
 C         -2.1941855689       -0.3003925867        1.2502281362
 N         -1.7020163919       -1.6005382180        1.4122996313
 C         -1.3741504348       -2.0390478248        2.6973421759
 C         -2.1521734349       -1.6489284217        3.7895660553
 C         -1.8223387778       -2.0727595117        5.0614859568
 C         -0.7200183792       -2.8884610317        5.2662265576
 C          0.0558483797       -3.2749466016        4.1848734430
 C         -0.2621693326       -2.8546192453        2.9088253430
 C         -1.5103421437       -2.4163744038        0.3012990311
 C         -1.1941375234       -1.8571840263       -0.9402282708
 C         -1.0197525975       -2.6695121487       -2.0423917411
 C         -1.1360442339       -4.0461309248       -1.9299858621
 C         -1.4474980537       -4.6067730928       -0.7009095739
 C         -1.6409517443       -3.8039394912        0.4051001334
 C         -1.6230255555        0.7521393846        1.9705651961
 C         -2.0515504771        2.0422647592        1.7638905103
 C         -1.1591424232        4.1167605215       -0.1914062425
 H          0.4664132402        2.4620544682        0.7667464811
 H          0.9189639769        0.0742797297        0.5720496485
 H          3.5619828779       -0.2942120159        0.7878197292
 H          4.0677308761       -1.6466203368        2.7773280628
 H          3.3719471678       -4.0139054670        2.8797036319
 H          2.0949394748       -4.9967640343        1.0037652307
 H          1.5453757648       -3.6333588637       -0.9655332895
 H          3.8708599512       -3.1215269211       -2.0882103923
 H          3.9613247166       -4.1732852213       -4.3017065503
 H          2.5116163351       -3.3576234121       -6.1288533808
 H          0.9747001459       -1.4677293469       -5.7180084580
 H          0.8659659094       -0.4225757543       -3.4958231916
 H          3.1556526691        0.7810119037       -3.0130869097
 H          2.6402078413        3.1847232555       -2.8452047938
 H          0.7638752006        6.8935005346       -0.1411498004
 H         -1.2803147972        7.8113624738        0.8951024159
 H         -3.2517529620        6.3502693139        1.2561504194
 H         -4.5245849233        1.4617227262       -0.4671093470
 H         -3.7143944937       -0.8538851130       -0.1573320466
 H         -3.0172111124       -1.0231168860        3.6280356502
 H         -2.4349292550       -1.7709531194        5.8974271997
 H         -0.4678688527       -3.2194104381        6.2616300233
 H          0.9213416208       -3.9025091653        4.3345201233
 H          0.3533582350       -3.1394879562        2.0706624014
 H         -1.0805481985       -0.7878567279       -1.0288702434
 H         -0.7808833754       -2.2289162299       -2.9978266247
 H         -0.9900598163       -4.6737537563       -2.7956057139
 H         -1.5540455495       -5.6768887011       -0.6064220464
 H         -1.9103307756       -4.2426158181        1.3540676815
 H         -0.8248229508        0.5455620756        2.6678775184
 H         -1.5928551626        2.8569211431        2.3025833575
 H         -1.1736517662        3.1136284154       -0.5843750072
