  80
  -124.415730030000       0.320903391436550      !
 O          4.2400454382       -3.5581845941        1.8449354111
 C          3.7547377153       -2.5122470727        1.3635619249
 C          2.3108406297       -2.3501427623        1.2349187728
 C          1.6550520007       -1.1037529117        1.2679896140
 C          0.2974149962       -1.0148618894        1.0871186955
 C         -0.4722979988       -2.1686807781        0.8754668167
 N         -1.8460838211       -2.0828902457        0.6276950185
 C         -2.6313463620       -1.1727620453        1.3262140526
 C         -2.3124475646       -0.8269400012        2.6437123877
 C         -3.1124490107        0.0518913189        3.3453275642
 C         -4.2402890099        0.6019719910        2.7546690108
 C         -4.5506638743        0.2793798010        1.4407762831
 C         -3.7560242169       -0.5945655387        0.7274352425
 C         -2.4186819437       -2.9517320524       -0.2978758536
 C         -3.7115421950       -3.4505446291       -0.1121420264
 C         -4.2618964038       -4.3169438894       -1.0345177363
 C         -3.5386843459       -4.7091944447       -2.1509458534
 C         -2.2505926825       -4.2294129800       -2.3347727510
 C         -1.6915000365       -3.3591139324       -1.4213475509
 C          0.1622329285       -3.4213521766        0.9225128261
 C          1.5155965568       -3.5083053007        1.1113970560
 C          4.6369271438       -1.4454484036        0.8685217136
 C          5.9765638927       -1.3996119934        1.2968210076
 C          6.8451456022       -0.4636501936        0.7733310882
 C          6.4144361527        0.4529502518       -0.1722113333
 C          5.0829282237        0.4258002171       -0.6010529345
 C          4.5759473557        1.3721756615       -1.6214751672
 O          5.2574565656        1.7882116790       -2.5522810128
 C          3.1614651479        1.7524469315       -1.4140717451
 C          2.2679268242        1.8439999714       -2.4837548251
 C          0.9295298646        2.0781806126       -2.2604143504
 C          0.4532361372        2.2649539872       -0.9582603835
 N         -0.9081379013        2.4592044315       -0.7081347249
 C         -1.2853741005        3.3836769683        0.2711803970
 C         -0.5907201891        4.5878241906        0.4007725259
 C         -0.9542115307        5.4949769219        1.3760460818
 C         -2.0083428122        5.2185867453        2.2332402163
 C         -2.6979576705        4.0228230903        2.1087167650
 C         -2.3431260635        3.1075317372        1.1375365439
 C         -1.8643108853        1.7260628354       -1.4032189988
 C         -1.5768318477        0.4365539636       -1.8602624859
 C         -2.5215540256       -0.2739151411       -2.5729813092
 C         -3.7702387603        0.2723978852       -2.8275096293
 C         -4.0654244783        1.5464056695       -2.3667416716
 C         -3.1238593714        2.2722649144       -1.6661221643
 C          1.3592222858        2.2572748010        0.1070034936
 C          2.6885056418        1.9914750907       -0.1183598174
 C          4.2155090105       -0.5382422873       -0.1001396269
 H          2.2231164211       -0.2084956690        1.4557407303
 H         -0.1873909206       -0.0501129761        1.0920474001
 H         -1.4510793088       -1.2759689111        3.1141931745
 H         -2.8621397132        0.2985479751        4.3659149347
 H         -4.8705450690        1.2780559529        3.3110264653
 H         -5.4152334558        0.7177711553        0.9648397757
 H         -3.9888150637       -0.8254167872       -0.2998627797
 H         -4.2679217735       -3.1704888603        0.7698439761
 H         -5.2587288640       -4.6991377337       -0.8749657540
 H         -3.9724666586       -5.3882679162       -2.8681059081
 H         -1.6793883864       -4.5302516713       -3.2003383995
 H         -0.6931797985       -2.9775934077       -1.5705759400
 H         -0.4321370018       -4.3171089392        0.8194361571
 H          2.0070834516       -4.4675793130        1.1529334368
 H          6.3090434747       -2.1173529420        2.0299121889
 H          7.8734905724       -0.4470476090        1.1039154549
 H          7.0868989032        1.1880157396       -0.5857442733
 H          2.6402416996        1.7024338652       -3.4867950720
 H          0.2376269689        2.1241777580       -3.0881194065
 H          0.2244199039        4.8041844540       -0.2734837210
 H         -0.4152487547        6.4260130099        1.4633478817
 H         -2.2885560948        5.9302696960        2.9941329739
 H         -3.5130564732        3.7943137002        2.7786522653
 H         -2.8687123283        2.1698911684        1.0509609652
 H         -0.6142763425       -0.0012917440       -1.6461123973
 H         -2.2885736873       -1.2683945883       -2.9223226168
 H         -4.5051779404       -0.2911370106       -3.3814439356
 H         -5.0320062992        1.9833663657       -2.5673929062
 H         -3.3474011832        3.2748459324       -1.3338909237
 H          1.0003153174        2.4343884968        1.1098587517
 H          3.3817102307        1.9680646905        0.7078161597
 H          3.2255507656       -0.6181452747       -0.5175814807
  80
  -124.415726750000       0.319791505295435      !
 O          4.3469177718       -4.1656777146        0.9123158047
 C          3.9042693107       -3.0217667146        0.9415499751
 C          2.4824948571       -2.7064080110        1.1964500611
 C          2.1434316994       -1.5981476451        1.9822339238
 C          0.8295818645       -1.2363931043        2.1584422142
 C         -0.1896443446       -1.9594908644        1.5303043111
 N         -1.5164886438       -1.5374620053        1.6521717275
 C         -1.9549199268       -1.0349742346        2.8809783160
 C         -1.5141143096       -1.6140220217        4.0726826510
 C         -1.9403259913       -1.1108424274        5.2857136675
 C         -2.8074043585       -0.0297701696        5.3314917096
 C         -3.2438363655        0.5494256811        4.1503128536
 C         -2.8226965513        0.0563589597        2.9312659739
 C         -2.3766688695       -1.5992668093        0.5602456454
 C         -3.7449946142       -1.8159145068        0.7457810116
 C         -4.5922074594       -1.8888999082       -0.3410909871
 C         -4.0957190649       -1.7589461783       -1.6291193396
 C         -2.7388516051       -1.5471011674       -1.8202440796
 C         -1.8838275786       -1.4580550533       -0.7402540842
 C          0.1404786808       -3.0986378983        0.7877671482
 C          1.4566135389       -3.4745566133        0.6399497389
 C          4.7399489484       -1.8214833446        0.7067427714
 C          6.0785699655       -1.7686165251        1.1103773473
 C          6.8244421736       -0.6299976321        0.8517772584
 C          6.2620004549        0.4511412654        0.2042281895
 C          4.9197514262        0.4093123648       -0.2161713624
 C          4.3677816960        1.5294089136       -0.9916046624
 O          5.1282715237        2.3248572159       -1.5820371747
 C          2.9183165103        1.6610463662       -1.1023460042
 C          2.3856967917        2.2586745017       -2.2626893171
 C          1.0327112950        2.3451624483       -2.4568246483
 C          0.1407773892        1.8639327776       -1.4841513595
 N         -1.2387075448        1.9011555691       -1.7132181921
 C         -2.1130148131        2.2566157220       -0.6929515401
 C         -1.7165724216        3.1638881296        0.2954994765
 C         -2.5972911617        3.5385306896        1.2896804049
 C         -3.8842238135        3.0226082891        1.3210119405
 C         -4.2774594031        2.1065893477        0.3551730851
 C         -3.4042432002        1.7199878985       -0.6408776273
 C         -1.7135400256        1.6152287479       -2.9911640376
 C         -1.0587236016        0.6687314270       -3.7861395391
 C         -1.5164759654        0.3912604945       -5.0580946295
 C         -2.6303051511        1.0457845320       -5.5621403566
 C         -3.2790453915        1.9917207282       -4.7826882108
 C         -2.8278050762        2.2804194796       -3.5108239109
 C          0.6609900196        1.3522745301       -0.2861042333
 C          2.0173185225        1.2584067422       -0.0974585397
 C          4.1820165943       -0.7471892474        0.0233288564
 H          2.9279210016       -1.0279078339        2.4543763198
 H          0.5763103764       -0.3764089442        2.7602180046
 H         -0.8474279719       -2.4626509341        4.0347754780
 H         -1.5996571036       -1.5706541995        6.2009710681
 H         -3.1386224656        0.3590769208        6.2817854075
 H         -3.9091419042        1.3991086025        4.1761428836
 H         -3.1486533949        0.5174359576        2.0125507069
 H         -4.1313214282       -1.9455487615        1.7455262989
 H         -5.6459176867       -2.0618506851       -0.1827957895
 H         -4.7587342785       -1.8237276192       -2.4780655986
 H         -2.3469858382       -1.4378419738       -2.8201996792
 H         -0.8321345557       -1.2716632831       -0.8926055224
 H         -0.6478429239       -3.6824076843        0.3363793223
 H          1.7153903716       -4.3541387162        0.0706542658
 H          6.5108642983       -2.6172851903        1.6166955376
 H          7.8587679205       -0.5873865508        1.1607038605
 H          6.8399553881        1.3381973490       -0.0011485345
 H          3.0748827855        2.6311575320       -3.0041293865
 H          0.6390173213        2.7947189090       -3.3563696789
 H         -0.7248630447        3.5881111474        0.2564638969
 H         -2.2818084604        4.2497888467        2.0378830867
 H         -4.5740655757        3.3286829296        2.0919271120
 H         -5.2708807710        1.6838288148        0.3817171394
 H         -3.7074717551        0.9920618054       -1.3765704977
 H         -0.1980144913        0.1519097445       -3.3903457707
 H         -1.0036326829       -0.3453657923       -5.6584099024
 H         -2.9847971981        0.8260656094       -6.5571106910
 H         -4.1362301414        2.5182129693       -5.1741616408
 H         -3.3195027210        3.0372809497       -2.9180894876
 H         -0.0176124156        1.0158199863        0.4833271152
 H          2.3968568028        0.8850481222        0.8385025471
 H          3.1862498880       -0.8424750137       -0.3766453122
  80
  -124.415157810000       0.175145991690456      !
 O          4.2346714868       -3.6748709427        1.5330912514
 C          3.7501008010       -2.5836533060        1.1578815410
 C          2.3097340831       -2.4062588144        1.0534974490
 C          1.6566803827       -1.1599794687        1.1473288715
 C          0.2950036136       -1.0643229912        1.0129833803
 C         -0.4888896601       -2.2098200889        0.7977793129
 N         -1.8716010489       -2.1079061258        0.6309769545
 C         -2.5964910653       -1.1782145068        1.3727245941
 C         -2.2210235311       -0.8698307303        2.6840014853
 C         -2.9668747493        0.0205418198        3.4293683034
 C         -4.0967577054        0.6157409523        2.8891862396
 C         -4.4616813193        0.3313404035        1.5804717473
 C         -3.7183956049       -0.5503217372        0.8217123144
 C         -2.5324137098       -2.9793569098       -0.2296257463
 C         -3.8302396631       -3.4169157043        0.0553763510
 C         -4.4783686777       -4.2814437054       -0.8022810234
 C         -3.8500617947       -4.7334311839       -1.9531165204
 C         -2.5571170041       -4.3179396479       -2.2339324422
 C         -1.8996031383       -3.4515154143       -1.3846268050
 C          0.1457451116       -3.4642258104        0.7783155691
 C          1.5045249735       -3.5578384279        0.9095680550
 C          4.6413580763       -1.4751236980        0.7837745257
 C          5.9618536285       -1.4587790606        1.2687726038
 C          6.8411526555       -0.4733708425        0.8682920962
 C          6.4402512456        0.5189723929       -0.0111806824
 C          5.1293926704        0.5172943948       -0.5006299880
 C          4.6610392360        1.5424757996       -1.4599912891
 O          5.3823560228        2.0579563291       -2.3046128611
 C          3.2247074317        1.8756351468       -1.3021716933
 C          2.3749028970        1.9758688114       -2.4041242707
 C          1.0218647295        2.1691021620       -2.2289065060
 C          0.4913825181        2.3100147075       -0.9434679016
 N         -0.8848088524        2.4723246254       -0.7469249464
 C         -1.3227826053        3.3955422624        0.2054244060
 C         -0.6377403794        4.6001366823        0.3790198329
 C         -1.0632788014        5.5083778873        1.3278184915
 C         -2.1721785605        5.2352013109        2.1140206454
 C         -2.8524124597        4.0394495538        1.9463171584
 C         -2.4342018381        3.1220565589        1.0031315594
 C         -1.7876300578        1.6938485676       -1.4649353443
 C         -1.4372545448        0.4053630952       -1.8785915650
 C         -2.3307091729       -0.3571412973       -2.6034207000
 C         -3.5891712137        0.1343690111       -2.9131447539
 C         -3.9432140742        1.4107535720       -2.5039409535
 C         -3.0524448315        2.1895336551       -1.7931278041
 C          1.3512805903        2.2873922481        0.1578932204
 C          2.6949686469        2.0561471239       -0.0204312463
 C          4.2510585242       -0.4917020337       -0.1212238940
 H          2.2296967023       -0.2712015418        1.3498355533
 H         -0.1854638103       -0.0987290453        1.0644758429
 H         -1.3597897971       -1.3571899350        3.1151163456
 H         -2.6745063646        0.2380417372        4.4454129189
 H         -4.6868963172        1.2968370222        3.4821508379
 H         -5.3296026982        0.8046390016        1.1453637033
 H         -3.9892935405       -0.7523397537       -0.2031240089
 H         -4.3142746949       -3.0898101137        0.9634402119
 H         -5.4776943715       -4.6139152422       -0.5654492055
 H         -4.3608256005       -5.4090266910       -2.6211306135
 H         -2.0587631702       -4.6682626667       -3.1254933083
 H         -0.8952431341       -3.1252638240       -1.6063974516
 H         -0.4531226441       -4.3570472948        0.6764871226
 H          1.9953972105       -4.5182678685        0.9011078842
 H          6.2707700494       -2.2359488367        1.9498087076
 H          7.8536719244       -0.4773986011        1.2448798705
 H          7.1200625299        1.2940324764       -0.3285134415
 H          2.7903180170        1.8746344098       -3.3950794383
 H          0.3616810335        2.2183253828       -3.0820154023
 H          0.2188723140        4.8173374572       -0.2415128821
 H         -0.5304868343        6.4393640234        1.4484397455
 H         -2.5026054432        5.9492410865        2.8521942206
 H         -3.7115759048        3.8131300885        2.5594444900
 H         -2.9520410990        2.1835029586        0.8869372185
 H         -0.4671775931        0.0091807389       -1.6212764790
 H         -2.0499428176       -1.3486590015       -2.9229547071
 H         -4.2839336790       -0.4722066365       -3.4734042449
 H         -4.9159043910        1.8076540546       -2.7524791426
 H         -3.3221144586        3.1930424911       -1.5002290199
 H          0.9463322259        2.4246034940        1.1494757705
 H          3.3540612051        2.0143712632        0.8328613039
 H          3.2817795544       -0.5449200936       -0.5887440651
  80
  -124.415141970000       0.172234695954793      !
 O          4.3364518427       -3.5717992135        2.0326393814
 C          3.8300116616       -2.5525284241        1.5287022029
 C          2.3779292191       -2.3949150473        1.4322553158
 C          1.7371840810       -1.1449315164        1.5055489027
 C          0.3840072319       -1.0335961922        1.3027728278
 C         -0.3861173164       -2.1700040950        1.0231768186
 N         -1.7467554972       -2.0542330895        0.7104419390
 C         -2.5569664852       -1.1868338483        1.4325780577
 C         -2.2877817228       -0.9360549998        2.7825839337
 C         -3.0965104908       -0.0853081409        3.5079348952
 C         -4.1872025036        0.5280665842        2.9103867020
 C         -4.4527850914        0.2933008018        1.5687338048
 C         -3.6469080443       -0.5496641155        0.8299377827
 C         -2.2520942071       -2.8185511025       -0.3378731141
 C         -3.5605806655       -3.3091069894       -0.3097448584
 C         -4.0417814280       -4.0649525881       -1.3596064907
 C         -3.2326280613       -4.3555166484       -2.4477524361
 C         -1.9277005975       -3.8867143257       -2.4742613607
 C         -1.4377595696       -3.1247296466       -1.4332570415
 C          0.2297395676       -3.4305074010        1.0435485831
 C          1.5792445127       -3.5400716771        1.2614712671
 C          4.6739657197       -1.4973535421        0.9467260199
 C          6.0372585032       -1.4265626199        1.2859807855
 C          6.8613156854       -0.5063506899        0.6691181847
 C          6.3622825833        0.3658235276       -0.2840345442
 C          5.0052737259        0.3137878293       -0.6250798395
 C          4.4360642117        1.1938171903       -1.6706858487
 O          5.0789429633        1.5542173358       -2.6561843936
 C          3.0314715929        1.5799803428       -1.4451991997
 C          2.1366338423        1.6922696601       -2.5157482845
 C          0.8080917934        1.9709762891       -2.2948095324
 C          0.3367038547        2.1829925040       -0.9932395329
 N         -1.0156761030        2.4350045245       -0.7472597397
 C         -1.3608810075        3.3816687944        0.2223173970
 C         -0.6209209157        4.5589857613        0.3481432287
 C         -0.9630646095        5.4915644728        1.3070942781
 C         -2.0391066905        5.2669768594        2.1523563378
 C         -2.7710815697        4.0956651056        2.0348430445
 C         -2.4383852974        3.1557740799        1.0797700240
 C         -2.0004315142        1.7546779080       -1.4548705065
 C         -1.7728951111        0.4552259944       -1.9177570283
 C         -2.7452239116       -0.2047410904       -2.6422883449
 C         -3.9630883260        0.4040511685       -2.9045691072
 C         -4.1988772222        1.6891707857       -2.4397898088
 C         -3.2293978291        2.3640983005       -1.7267608266
 C          1.2433531630        2.1481408756        0.0726336108
 C          2.5633582089        1.8404502426       -0.1500256830
 C          4.1814648862       -0.6323609453       -0.0272238758
 H          2.3163492729       -0.2651119876        1.7296579776
 H         -0.0932781147       -0.0657609300        1.3307550248
 H         -1.4547355038       -1.4329284940        3.2561706465
 H         -2.8827011386        0.0893153100        4.5514511323
 H         -4.8235127116        1.1837916636        3.4839219590
 H         -5.2920925473        0.7761410400        1.0896475998
 H         -3.8441682050       -0.7072335697       -0.2186334188
 H         -4.1852793326       -3.1092870501        0.5479622608
 H         -5.0529912006       -4.4409654497       -1.3234484519
 H         -3.6129578266       -4.9478536939       -3.2653096555
 H         -1.2886887193       -4.1085988355       -3.3160654877
 H         -0.4271663268       -2.7479124207       -1.4634507859
 H         -0.3718835297       -4.3134109989        0.8857391184
 H          2.0597274508       -4.5058112720        1.2761969109
 H          6.4233562389       -2.1122798470        2.0234126061
 H          7.9088024057       -0.4688140952        0.9307583559
 H          7.0012385360        1.0840395231       -0.7732472978
 H          2.5063786729        1.5365412975       -3.5175394793
 H          0.1194911833        2.0392585282       -3.1238322173
 H          0.2098077990        4.7361657314       -0.3186183789
 H         -0.3908554305        6.4030667272        1.3899615925
 H         -2.3036880873        5.9998405983        2.8985944039
 H         -3.6032899136        3.9071152572        2.6961344757
 H         -2.9965331378        2.2364143942        0.9980789158
 H         -0.8358267824       -0.0309455608       -1.6961296745
 H         -2.5569662159       -1.2077749061       -2.9936797442
 H         -4.7200374958       -0.1191188992       -3.4679754489
 H         -5.1405282836        2.1746222995       -2.6473878606
 H         -3.4067253978        3.3750043595       -1.3918507326
 H          0.8911320836        2.3472045600        1.0738367836
 H          3.2559507377        1.8075199198        0.6758658340
 H          3.1662865141       -0.7337000026       -0.3734217058
  80
  -124.412618550000       1.192441562276581E-002 !
 O          4.3837825189       -1.5186814015        3.5527712008
 C          3.8373839545       -1.4344117636        2.4536886375
 C          2.3763125943       -1.5385286508        2.3100024087
 C          1.5413499104       -1.1593372987        3.3691255697
 C          0.1792559508       -1.3134398932        3.2855049931
 C         -0.4032465783       -1.9051243068        2.1549327440
 N         -1.7779913575       -2.1207629202        2.1087595270
 C         -2.4789152823       -2.3631661359        3.2985194410
 C         -1.9407099380       -3.1900335188        4.2852623231
 C         -2.6426392553       -3.4222374559        5.4517273604
 C         -3.8841659067       -2.8386072193        5.6512014057
 C         -4.4229444456       -2.0169716868        4.6731683660
 C         -3.7288781849       -1.7775596042        3.5036637157
 C         -2.4727799523       -2.1416570295        0.9003539382
 C         -3.5670223397       -2.9935921235        0.7266733728
 C         -4.2495714419       -3.0106866280       -0.4729654230
 C         -3.8515376812       -2.1951371356       -1.5208823445
 C         -2.7638229774       -1.3522066334       -1.3555339629
 C         -2.0835584630       -1.3165296230       -0.1557357038
 C          0.4309346930       -2.3013667603        1.1002056689
 C          1.7900194582       -2.1072577564        1.1718111048
 C          4.6122587030       -1.2384531007        1.2072672504
 C          5.8503792712       -1.8659819344        1.0342925680
 C          6.5967414708       -1.6101753022       -0.1031667611
 C          6.1349984077       -0.7298469295       -1.0601583700
 C          4.8963934084       -0.0867519823       -0.8978662186
 C          4.4923083882        0.9375248211       -1.8720892511
 O          5.3456146339        1.5190996410       -2.5731009662
 C          3.0815643163        1.2798949445       -1.9974971815
 C          2.7396569499        2.5540077793       -2.4967023811
 C          1.4318482330        2.9509662104       -2.5865825535
 C          0.4006294849        2.0758136555       -2.2120048079
 N         -0.9384594702        2.4847500700       -2.2563789962
 C         -1.7824382197        2.1806708890       -1.1946594824
 C         -1.2713505804        2.0780900178        0.1039919936
 C         -2.1062698849        1.7703422640        1.1587667770
 C         -3.4599097837        1.5579949821        0.9448022860
 C         -3.9727164357        1.6500198141       -0.3401163123
 C         -3.1476199749        1.9552310637       -1.4028669679
 C         -1.3840178490        3.2139774413       -3.3565050899
 C         -0.8600498570        2.9462301400       -4.6248558115
 C         -1.2856932673        3.6707034480       -5.7193006480
 C         -2.2355470374        4.6703830885       -5.5725081807
 C         -2.7535881975        4.9456256389       -4.3157662589
 C         -2.3342389886        4.2292459340       -3.2131144286
 C          0.7282840366        0.7736952864       -1.8100728687
 C          2.0379225994        0.3783713814       -1.7166082252
 C          4.1448737524       -0.3503145489        0.2464340094
 H          1.9928068544       -0.7264573491        4.2485766451
 H         -0.4532876675       -0.9826418849        4.0955415845
 H         -0.9787522666       -3.6528332802        4.1220539720
 H         -2.2207611702       -4.0694075203        6.2055983208
 H         -4.4292853606       -3.0240562506        6.5635897199
 H         -5.3869471321       -1.5552561930        4.8250174961
 H         -4.1397887903       -1.1333705480        2.7399996939
 H         -3.8662432205       -3.6480333810        1.5319576836
 H         -5.0915722525       -3.6750492709       -0.5949876481
 H         -4.3831930419       -2.2173938733       -2.4593635483
 H         -2.4505485776       -0.7118098745       -2.1667913061
 H         -1.2587651971       -0.6395521990       -0.0069488279
 H          0.0015363498       -2.7924207610        0.2400191232
 H          2.4226045218       -2.4419380511        0.3645333805
 H          6.2091311043       -2.5388666302        1.7973617939
 H          7.5528007621       -2.0946311284       -0.2379864344
 H          6.7185614812       -0.5087635174       -1.9399377983
 H          3.5425274580        3.2224761376       -2.7652022033
 H          1.1823972038        3.9478883753       -2.9191215804
 H         -0.2206504915        2.2575940012        0.2740810598
 H         -1.6977947809        1.7024581084        2.1562887400
 H         -4.1108028857        1.3279559233        1.7741595880
 H         -5.0230007681        1.4741070720       -0.5169450447
 H         -3.5480808037        2.0075481440       -2.4044755655
 H         -0.1295940544        2.1591323711       -4.7384814659
 H         -0.8783739396        3.4490357970       -6.6940873830
 H         -2.5669117834        5.2335941797       -6.4308688189
 H         -3.4829519655        5.7318795467       -4.1922421064
 H         -2.7203560946        4.4610064283       -2.2313104479
 H         -0.0648203668        0.0726227275       -1.6055862253
 H          2.2675700352       -0.6411260502       -1.4550475000
 H          3.2318571905        0.1916503886        0.4342319380
