  103
       -157.70244648
 C          6.3426629464       -1.0357907436        3.0287196365
 C          5.9167440189       -1.3291302124        1.5774955452
 C          6.8923693083       -2.3296398630        0.9284646922
 C          4.5339596492       -1.9458024436        1.5894401935
 C          4.3141632751       -3.1324184438        2.2755151899
 C          3.0716459631       -3.7385827236        2.3090511943
 C          2.0106974155       -3.1635199366        1.6264630805
 C          2.2023488998       -1.9933025329        0.9276766696
 C          3.4534766099       -1.3608382427        0.9112435164
 N          3.6056260597       -0.1735569474        0.2293041872
 C          2.4757324293        0.3862409749       -0.4356612984
 C          1.5720304923        1.1683966469        0.3099806669
 C          0.4384271344        1.6776600932       -0.3477423714
 N         -0.5593227321        2.3521260954        0.4133355409
 C         -1.4239056957        1.5912321767        1.1734863015
 C         -1.2794824656        0.1966871893        1.2063880106
 C         -2.0924797471       -0.5822656147        1.9983013199
 C         -3.0942004234        0.0102352198        2.7507342888
 C         -3.2673974331        1.3810393370        2.6916350004
 C         -2.4497668672        2.1936431744        1.9176457702
 C         -2.6975977680        3.6873449055        1.8792320961
 C         -2.5913611954        4.2466761976        3.3106270806
 C         -4.1105882273        3.9316498860        1.3157571009
 C         -1.6915132893        4.4073550056        1.0057047011
 C         -1.7616274183        5.7864170562        0.8650890872
 C         -0.8518441651        6.4905316583        0.0979100883
 C          0.1712996896        5.8104776838       -0.5455385017
 C          0.2627841686        4.4423422266       -0.4295095917
 C         -0.6695975711        3.7227865280        0.3303398838
 C          0.2443580502        1.4774000206       -1.6918335991
 C          1.1608620567        0.6957399789       -2.4215262467
 S          0.5900301471       -0.0179945421       -3.9413188580
 O          1.5875426851       -0.9412674699       -4.4226690688
 O          0.1204048106        1.0045930125       -4.8424828845
 C         -0.8022623242       -0.8663884136       -3.2230128143
 C         -2.0323728478       -0.1962732493       -3.2020786323
 C         -3.0307830725       -0.5840172078       -2.3237185551
 C         -2.7683249971       -1.6414237669       -1.4684138175
 C         -1.5417745660       -2.3726490729       -1.5417752629
 C         -0.5437108328       -1.9510868680       -2.4046861846
 C         -1.6372164251       -3.4245670505       -0.5769219122
 C         -0.7717964115       -4.4419915327       -0.1877759876
 C         -1.1590218834       -5.2818340535        0.8449637348
 C         -2.3754896913       -5.1103213738        1.4932996843
 C         -3.2619471493       -4.1079644349        1.1115021388
 C         -2.8965567249       -3.2842344719        0.0596594617
 N         -3.5686867115       -2.2058517209       -0.4912370253
 C         -4.8013449651       -1.7101971987       -0.0710552678
 C         -5.8788884446       -2.5745962299        0.1401955641
 C         -7.0917859599       -2.0760216648        0.5694595959
 C         -7.2546176334       -0.7159776198        0.7912200419
 C         -6.1891724868        0.1463186384        0.5732450280
 C         -4.9714095500       -0.3394645042        0.1456106767
 C          2.2637756374        0.1279518375       -1.7680708549
 C          4.8127705782        0.4851690766        0.1629933870
 C          4.8978618305        1.6967871394       -0.5370574988
 C          6.0914893451        2.3754079720       -0.6277842503
 C          7.2264253919        1.8595272304       -0.0203740121
 C          7.1447151304        0.6692378293        0.6787993413
 C          5.9546693761       -0.0358830280        0.7910502912
 H          6.3498777249       -1.9459089514        3.6216631878
 H          7.3378881548       -0.6020045375        3.0595675910
 H          5.6468783647       -0.3337663064        3.4843880438
 H          6.9074910253       -3.2662398284        1.4784298964
 H          6.5843009978       -2.5355924773       -0.0945773924
 H          7.9016249333       -1.9282092419        0.9094230088
 H          5.1315885573       -3.6014058284        2.8015471087
 H          2.9339989292       -4.6571817303        2.8582686956
 H          1.0364784158       -3.6275944668        1.6330755203
 H          1.3827190733       -1.5601843389        0.3778518945
 H          1.7254849590        1.3377306029        1.3624287641
 H         -0.5236883452       -0.2720445971        0.5990215360
 H         -1.9479436474       -1.6513298533        2.0232353111
 H         -3.7430598573       -0.5908576235        3.3684752315
 H         -4.0653747391        1.8236397780        3.2675797823
 H         -1.5924381086        4.0686107892        3.7039862495
 H         -2.7795520316        5.3162566326        3.3233249215
 H         -3.3101014662        3.7671944328        3.9687492842
 H         -4.8592120034        3.4345167186        1.9266692359
 H         -4.1775363414        3.5429088268        0.3014835642
 H         -4.3393049738        4.9933777425        1.2922787166
 H         -2.5458744040        6.3329871544        1.3663312897
 H         -0.9369442385        7.5624221322        0.0076662233
 H          0.8958090445        6.3476583151       -1.1378422477
 H          1.0563519376        3.9096146701       -0.9287241740
 H         -0.6255872514        1.8689994593       -2.1928980275
 H         -2.1753386952        0.6191489331       -3.8917699675
 H         -3.9838326127       -0.0773933572       -2.3152564883
 H          0.4187935012       -2.4364052501       -2.4523327531
 H          0.1787857908       -4.5681973849       -0.6825040766
 H         -0.5004060485       -6.0787723467        1.1589794137
 H         -2.6422064975       -5.7651743555        2.3091284970
 H         -4.1950498631       -3.9724331245        1.6361662981
 H         -5.7627881461       -3.6277631342       -0.0662176048
 H         -7.9215794658       -2.7502052744        0.7225957583
 H         -8.2055427941       -0.3309257553        1.1261168151
 H         -6.3089080750        1.2059166836        0.7449327782
 H         -4.1346791810        0.3267622136        0.0042146383
 H          2.9259215434       -0.5082553821       -2.3329335863
 H          4.0145187635        2.0925427549       -1.0120362063
 H          6.1391761933        3.3054067901       -1.1730241232
 H          8.1683175273        2.3814418769       -0.0893400193
 H          8.0374852122        0.2846881994        1.1477697737
