60
 energy: -95.830481783072 gnorm: 0.000063806089 xtb: 6.7.1 (edcfbbe)
C            1.64744753010518        1.34589830850410       -2.55933187786290
C            0.52231880627609        1.35994699013989       -1.75561693422125
C            0.59728995913194        0.93708040321812       -0.42999031377840
C           -0.59726059853433        0.93708148530497        0.42993857745665
C           -0.52229027100832        1.36000612346676        1.75554677114412
C           -1.64743282810769        1.34606945548624        2.55923959358566
C           -2.86304301431664        0.91273229404886        2.06046011916258
C           -2.95206012429122        0.50653756137034        0.73263480633458
N           -4.17763913452251        0.05790084936942        0.20825481766022
C           -5.42136821007908        0.63589540659933        0.40023922065945
C           -5.75608835414230        1.82833530859268        1.02670959962722
C           -7.08914834729507        2.19307455409247        1.05451286536792
C           -8.07493154898316        1.40126781486229        0.46863743632146
C           -7.74760999418770        0.22830457270606       -0.18161407140314
C           -6.41334753335876       -0.15752158808385       -0.22409257725059
C           -5.72694637933817       -1.26394020776445       -0.82542922615970
C           -6.09226986918664       -2.37918870871865       -1.56257989142044
C           -5.07834317241779       -3.23344184554181       -1.96947490529029
C           -3.75942113520518       -2.94968929229364       -1.62809264991513
N           -3.37797399805644       -1.89484373710759       -0.92402199560864
C           -4.34725333921642       -1.07910236589427       -0.54089722507764
C           -1.82331560211714        0.51800188118399       -0.07561042538010
C            1.82333402949152        0.51798507427960        0.07556753662592
C            2.95207227075537        0.50645566201329       -0.73268545490669
N            4.17764454421277        0.05782890185916       -0.20828050355793
C            5.42137772646919        0.63581636661702       -0.40025352984407
C            5.75611415875733        1.82824200729119       -1.02674221132358
C            7.08917462498601        2.19298305428996       -1.05451552473706
C            8.07494444953364        1.40118293443641       -0.46860791727240
C            7.74760902789269        0.22822459144285        0.18164502854914
C            6.41334371360019       -0.15759281269803        0.22411025627492
C            5.72692388282880       -1.26398097448441        0.82548148442057
C            6.09222445216900       -2.37919992261919        1.56268802503879
C            5.07828859712229       -3.23344848407868        1.96956752545077
C            3.75937602413016       -2.94970848253166        1.62813801655138
N            3.37794728882434       -1.89487827488853        0.92403367432731
C            4.34723832716825       -1.07915198546239        0.54090825961142
C            2.86305671827486        0.91257660850601       -2.06053288342100
H            1.57766995096584        1.66625213274657       -3.58847469964147
H           -0.41845613847846        1.70984558211776       -2.15279222522370
H            0.41848659482741        1.70993232746439        2.15269805254582
H           -1.57763089538516        1.66637238065372        3.58839829057145
H           -3.73269066788066        0.86972383087730        2.69836933550621
H           -5.00054437773460        2.46119097053985        1.46566857545096
H           -7.37253656416029        3.11617157854480        1.53838622895361
H           -9.10590346507686        1.71924769260478        0.51533095630229
H           -8.50699241405966       -0.37700712601004       -0.65342650473869
H           -7.12515076339140       -2.57600187653469       -1.81082721034479
H           -5.30186474484703       -4.11642074908067       -2.54773913235743
H           -2.95471241412822       -3.60459030986225       -1.93594650453810
H           -1.90117835308815        0.16485621358419       -1.09126571043139
H            1.90118960392177        0.16486641249150        1.09123137480552
H            5.00058048191623        2.46108287598111       -1.46574172331571
H            7.37257669957166        3.11606488118876       -1.53841149755761
H            9.10591763656240        1.71916578281639       -0.51527734502950
H            8.50697733660163       -0.37706544379658        0.65350945270250
H            7.12510451305248       -2.57603064605833        1.81092844749846
H            5.30179354883767       -4.11642177869575        2.54784967953061
H            2.95465411044128       -3.60458780756426        1.93600574355481
H            3.73272464415889        0.86961354849500       -2.69841707996468
