60
 energy: -95.722828893541 gnorm: 0.000067828194 xtb: 6.7.1 (edcfbbe)
C            2.60863856320311       -3.67579224227675        1.13027556680362
C            1.28684459110292       -3.68106857663577        0.72792654659101
C            0.70282774832496       -2.53008442121877        0.17818655678274
C           -0.69874575089409       -2.52314888752697       -0.24396824794284
C           -1.30332067850765       -3.67399413062919       -0.76976274401861
C           -2.63770747506297       -3.66622079026637       -1.13009575110578
C           -3.40012513508079       -2.52033753924903       -0.99607414635966
C           -2.80423786757801       -1.35740970226233       -0.49592009917229
N           -3.56198916327098       -0.19222146079034       -0.36381445123755
C           -3.14492019925976        1.10216070083261       -0.64101936055299
C           -1.97500860323699        1.54585888254590       -1.22952034336171
C           -1.82345942586182        2.91521056696513       -1.43352008004264
C           -2.82278254223544        3.81088374525151       -1.06677164745796
C           -4.01410674398216        3.37336344700216       -0.51140100257999
C           -4.19143727991062        2.00601514339974       -0.30460674474564
C           -5.27649740718351        1.21868031833645        0.17810972964531
C           -6.56895915617881        1.46914835355315        0.65974492011628
C           -7.32730857768523        0.37152735923054        1.03741701459575
C           -6.80563078971098       -0.91404496604802        0.93266922734266
N           -5.57624096342566       -1.17612223158657        0.47294727422102
C           -4.85342438024934       -0.13651348032502        0.11042975518227
C           -1.46756552895589       -1.36814717939752       -0.11387798940704
C            1.49009168181441       -1.38980960600726        0.03799609204073
C            2.82282230379550       -1.38932721188973        0.42977118777201
N            3.58187068972124       -0.22651921425472        0.28543207643994
C            4.91561404162831       -0.14242204160957       -0.08888117892459
C            5.76504642622253       -1.12694698049388       -0.55978411066894
C            7.06528658603441       -0.76153941064260       -0.89925359054157
C            7.49432897496338        0.55725233882349       -0.78526357405517
C            6.64105686105643        1.55684822368964       -0.34831369797004
C            5.33412108882940        1.21523483569110       -0.00303019559903
C            4.20361756912134        1.96846257117011        0.42617505350580
C            3.93843267342020        3.31526441764533        0.71210227749743
C            2.65474782425604        3.63252509484311        1.12869545685716
C            1.68868379559292        2.63912084393080        1.25080388456943
N            1.91634536472277        1.34909462367001        0.97322913003075
C            3.13545280916871        1.04400826692510        0.57785247666631
C            3.38728966439874       -2.54049404712264        0.99189000871863
H            3.03783534574213       -4.56220737668434        1.57345871949467
H            0.68859256024091       -4.56717847204811        0.87117297853744
H           -0.71728136295734       -4.56911350855332       -0.90815519951955
H           -3.09034711635680       -4.56108085127608       -1.53046534204864
H           -4.43970997592708       -2.50476619364980       -1.27870448966814
H           -1.20513060429140        0.85874915783015       -1.54314227802689
H           -0.91492766806262        3.28294000161064       -1.88521980539031
H           -2.67115093302905        4.86742154393004       -1.23362020667698
H           -4.79526281196925        4.07099794939076       -0.25104289516108
H           -6.95405059516060        2.47444372826236        0.73227070438204
H           -8.32856550412579        0.50258521023637        1.41881923459177
H           -7.37988298648666       -1.78110985979777        1.22401725555419
H           -1.04039525989417       -0.48913460911362        0.34360192579122
H            1.08163819221752       -0.49410333820951       -0.40009336147347
H            5.43425588161683       -2.14621174539737       -0.68375717114396
H            7.74617464692319       -1.51501526273040       -1.26393199091437
H            8.51064097719644        0.80647324352466       -1.05367932985090
H            6.97409527975939        2.58115490838673       -0.27996536582628
H            4.70382856624124        4.06949299641121        0.61481149234576
H            2.39098495488963        4.65304075977024        1.36176906272032
H            0.68403693672316        2.86741029256624        1.57547436158332
H            4.40427793950613       -2.52318219481737        1.35027376915114
