60
 energy: -95.832399035843 gnorm: 0.000026612640 xtb: 6.7.1 (edcfbbe)
C            2.55143628138678       -3.62571116141477        1.26887592669956
C            1.24632356611882       -3.63994349784163        0.81183198734864
C            0.70354911295371       -2.51481748793141        0.19401050219722
C           -0.69246782341885       -2.50591008187926       -0.27206721768673
C           -1.25473997373419       -3.62544701851005       -0.88171428170569
C           -2.57265259650931       -3.60589973246508       -1.30138700152705
C           -3.34730394671025       -2.47223396552710       -1.13522444430327
C           -2.79246809089108       -1.34651038019092       -0.53591219936268
N           -3.57359970487571       -0.18978346142144       -0.36148085326532
C           -3.18365707188852        1.11455794863166       -0.61462487118332
C           -2.01038245220013        1.59407613339385       -1.17963977981570
C           -1.88825714324889        2.95911721645207       -1.35887992217143
C           -2.90621017268277        3.83733198982975       -0.99226570320636
C           -4.08750906033566        3.36715159260331       -0.45451865257810
C           -4.23456311090682        1.99776958529533       -0.26988619536076
C           -5.31025917313460        1.17908934461882        0.20898754135022
C           -6.58964735133265        1.40146073543456        0.69272832438631
C           -7.33488466608245        0.28984879016862        1.05652053522783
C           -6.78252459965498       -0.98115389386334        0.93032604653443
N           -5.56420582606925       -1.22750786073153        0.47256754795665
C           -4.85727851479445       -0.16495981957115        0.12102945909099
C           -1.47503439595298       -1.36846516012032       -0.09662498929286
C            1.50315224243104       -1.38966761721500        0.02407140815432
C            2.81547181875377       -1.37996412741491        0.47605258874360
N            3.59407198466154       -0.22107933395096        0.30959789765698
C            4.92066530518649       -0.15856363778010       -0.08344335477445
C            5.76346850363513       -1.17087269296102       -0.52051307438116
C            7.05286313385763       -0.82849398496274       -0.88277586073262
C            7.50188367889581        0.48937489406877       -0.82486118490200
C            6.66136942137244        1.50681991363837       -0.41974215341777
C            5.36012465332213        1.18646206223704       -0.05227576369409
C            4.23716838448653        1.96945898592644        0.37545978231932
C            3.99545598518845        3.31248912145161        0.61695397357751
C            2.72183305065928        3.66452433799569        1.03817839674617
C            1.75400946486368        2.67884948708044        1.20477779562607
N            1.95217073953625        1.38829068966893        0.98129009288889
C            3.16761509658526        1.05597015422220        0.57474370533304
C            3.34044826811740       -2.49959420994637        1.11363203861299
H            2.95713122822820       -4.49537247104003        1.76443450852959
H            0.63378753189743       -4.51594117759969        0.96099584433061
H           -0.65275091881633       -4.50747845253910       -1.03894538227300
H           -3.00050661810801       -4.47952718183360       -1.77027252560878
H           -4.37666531998517       -2.45143978549115       -1.45507917755545
H           -1.22190845153042        0.92460835661454       -1.48550412639781
H           -0.98214736859384        3.35337561267681       -1.79524799985839
H           -2.77002444890704        4.89781903741331       -1.14434007061041
H           -4.88626749623442        4.04314448612721       -0.18854811702453
H           -6.99092015018323        2.40051060427705        0.78305254733866
H           -8.33791151261497        0.40051787362057        1.43797773242181
H           -7.34841712028095       -1.85999895988403        1.21067106419973
H           -1.06551571472564       -0.51077719538546        0.41548072029703
H            1.11269343707359       -0.51153974554879       -0.46408227481662
H            5.42273762113546       -2.19204159853446       -0.59128076760070
H            7.72649178060595       -1.60092080400658       -1.22331989064922
H            8.51789712633495        0.71508283147755       -1.11282284492255
H            7.00028952123582        2.53155848388193       -0.39311969682577
H            4.76794680579745        4.05590933796893        0.48395471676229
H            2.47418376657962        4.69481531459059        1.24066813705127
H            0.75620303482294        2.93484383072198        1.53668198942320
H            4.34746087160415       -2.47875160443385        1.50132288519657
