60
 energy: -95.722820653074 gnorm: 0.000060131978 xtb: 6.7.1 (edcfbbe)
C            2.60018796869294       -3.65850872004426        1.14647838478550
C            1.28011787575437       -3.66193498860594        0.73832779378737
C            0.70300546203374       -2.51294867993312        0.17796196862921
C           -0.69725782261724       -2.50653731832775       -0.25015068935758
C           -1.29484554005155       -3.65663345518846       -0.78474181832602
C           -2.62806263902182       -3.65209150851851       -1.14953119825828
C           -3.39538401359092       -2.51036377712806       -1.00957263097024
C           -2.80650623477846       -1.34812792499954       -0.49966427473823
N           -3.57245915987849       -0.18950977471766       -0.35814837366432
C           -3.16576849034215        1.11134821650954       -0.62045553459937
C           -1.99688561179053        1.57204838126102       -1.19770081377910
C           -1.85701555724164        2.94487565433381       -1.38681516983009
C           -2.86643476601489        3.82749942762505       -1.01615724634127
C           -4.05654268590745        3.37325898287825       -0.47180806936839
C           -4.22241431993791        2.00218459476195       -0.28044955758683
C           -5.30250502208442        1.20048330235173        0.18907948456103
C           -6.60000082473099        1.43440167329200        0.66600775362693
C           -7.35000226825144        0.32632287018379        1.02932069028718
C           -6.81574332940773       -0.95333740421606        0.91573678740323
N           -5.58124711547300       -1.19949554265580        0.46056573156839
C           -4.86658023200057       -0.14997088631499        0.11079574551057
C           -1.47016611443405       -1.35514308729593       -0.11540005429390
C            1.49401906732077       -1.37625806878096        0.03237100510654
C            2.82600264298837       -1.37873555429793        0.42746363682510
N            3.59280315590169       -0.22225664813533        0.27336691892301
C            4.92785482879895       -0.15225075807822       -0.09951829362142
C            5.76951514408319       -1.14751261825583       -0.56160714740747
C            7.07343697633233       -0.79583254702508       -0.90168702223325
C            7.51343007645417        0.52008303087661       -0.79702182156231
C            6.66798528861370        1.53028558906669       -0.36928791596195
C            5.35772600554365        1.20237083876248       -0.02301344074817
C            4.23301815492393        1.96821846004907        0.39879554354991
C            3.97940281665334        3.31908619662542        0.67627958764130
C            2.69812398622889        3.65014714081767        1.08944017716045
C            1.72309098886016        2.66612703900018        1.21631385268041
N            1.93959405290272        1.37239781321160        0.94657737618655
C            3.15658605387180        1.05407526841413        0.55533142100921
C            3.38342510613959       -2.52737281608008        1.00131461696048
H            3.02428027150446       -4.54282348403676        1.59863310683423
H            0.67762556781152       -4.54463744453986        0.88509559488662
H           -0.70425441695793       -4.54831982971862       -0.92622283422822
H           -3.07579907807691       -4.54604568246613       -1.55730316452840
H           -4.43436031271327       -2.49764900068546       -1.29459977012673
H           -1.21865770465791        0.89579231478282       -1.51417591523305
H           -0.94958119329867        3.32551903255488       -1.82990903516713
H           -2.72379993071872        4.88706547449432       -1.17141009226511
H           -4.84548741390328        4.06082906457843       -0.20815053948778
H           -6.99498322922575        2.43529733255823        0.74557195817231
H           -8.35419763406404        0.44459413126462        1.40716983165547
H           -7.38300296476599       -1.82837390038885        1.19671005826906
H           -1.04667521036159       -0.47740710270433        0.34800776935988
H            1.08953847152256       -0.48224852019300       -0.41298866809963
H            5.43022632465776       -2.16484520891067       -0.67836651851458
H            7.74853311603958       -1.55794537779212       -1.25913257105165
H            8.53236181707048        0.75851884912536       -1.06537012900510
H            7.00966226598263        2.55222991855164       -0.30834900143843
H            4.75168340672237        4.06582802436194        0.57570351775085
H            2.44309958966998        4.67441245747436        1.31574218586126
H            0.72013779687873        2.90531645560585        1.53822831807142
H            4.39937282049602       -2.51106456460448        1.36277572655195
