  51
        -83.65201100
 C          1.2586543983        4.0400496547       -0.0612623214
 C          0.9036742704        3.4636856888        1.1473264508
 C          0.2267153332        2.2581220806        1.1702557768
 C         -0.0975273950        1.6311343839       -0.0275611486
 N         -0.7670680188        0.3874524581       -0.0124654903
 C         -0.1538523944       -0.8459532607       -0.0211453586
 C          1.2545025229       -1.0761380715       -0.0258734866
 C          1.8433188607       -2.3191203490       -0.0593045937
 C          3.2394254431       -2.2731337009       -0.0477856787
 C          3.7417709071       -0.9947361474       -0.0028983046
 C          5.1024789911       -0.5725473472        0.0244425621
 C          5.5919977452        0.7077992994        0.0842134776
 C          6.9975914048        0.7611793014        0.0977256900
 C          7.5707120125       -0.4700312535        0.0486303884
 S          6.4030094874       -1.7301716924       -0.0165904844
 S          2.4561840976        0.1796532688        0.0224286974
 N         -1.0283230170       -1.8312729334       -0.0181756333
 C         -2.2482858958       -1.2438323523       -0.0070338812
 C         -3.5247309298       -1.8740812992        0.0018058006
 C         -3.6430777358       -3.2675633018       -0.0031910397
 C         -4.8817157864       -3.8587002397        0.0050150260
 C         -6.0213652749       -3.0571693598        0.0179318487
 C         -5.9164481953       -1.6857307047        0.0234059443
 C         -4.6687037351       -1.0435714102        0.0160668303
 C         -4.5276394877        0.4027851795        0.0207261647
 C         -5.6424607039        1.2525204132        0.0384793103
 C         -5.5162128643        2.6217198648        0.0398288290
 C         -4.2546790634        3.2084238601        0.0216562243
 C         -3.1359604760        2.4127130275        0.0056052156
 C         -3.2440001749        1.0146195282        0.0072970400
 C         -2.1186528902        0.1464416091       -0.0037552400
 C          0.2569946975        2.2077790235       -1.2419897932
 C          0.9344920298        3.4131318172       -1.2531044831
 H          1.7886781404        4.9803810414       -0.0743937771
 H          1.1554061182        3.9528220421        2.0761319955
 H         -0.0557682069        1.7970087181        2.1050488612
 H          1.2564215829       -3.2177437069       -0.0906564076
 H          3.8730283841       -3.1420563047       -0.0700907587
 H          4.9513490048        1.5714796028        0.1169359171
 H          7.5590976150        1.6770128052        0.1425818799
 H          8.6121126714       -0.7226589594        0.0459761951
 H         -2.7349598767       -3.8496349324       -0.0135273403
 H         -4.9776111450       -4.9343278066        0.0014389889
 H         -6.9990300998       -3.5171732755        0.0237796661
 H         -6.8265069494       -1.1074506923        0.0328442647
 H         -6.6357163185        0.8341927756        0.0527500827
 H         -6.3992547194        3.2434227413        0.0547569645
 H         -4.1553894181        4.2837093584        0.0197044791
 H         -2.1586124164        2.8685667050       -0.0095804826
 H         -0.0016965731        1.7071322278       -2.1632747733
 H          1.2092475781        3.8630349020       -2.1951382008
  51
        -83.65017208
 C          1.3253220878        3.8949570815       -0.0145538160
 C          1.0007119893        3.2942167314        1.1904565776
 C          0.3148796235        2.0936336678        1.2057509757
 C         -0.0477570110        1.4959158699        0.0040564764
 N         -0.7259531572        0.2566613005        0.0132438654
 C         -0.1213303382       -0.9806467805        0.0273223719
 C          1.2861040306       -1.2167039315        0.0338575777
 C          1.8714929244       -2.4619243180        0.0629773294
 C          3.2673704594       -2.4205509302        0.0562249341
 C          3.7742421968       -1.1412493660        0.0208223122
 C          5.1409795861       -0.7309841562        0.0017676837
 C          6.2649650893       -1.5199712917       -0.0094941669
 C          7.4597202683       -0.7783572206       -0.0294201937
 C          7.2467702294        0.5640652149       -0.0326438607
 S          5.5738039476        0.9554652000       -0.0125434388
 S          2.4919260977        0.0334570082       -0.0030612047
 N         -1.0024971371       -1.9601687669        0.0295804183
 C         -2.2184829241       -1.3641361875        0.0158974504
 C         -3.4999774298       -1.9843012281        0.0071304209
 C         -3.6299808054       -3.3767584959        0.0146626198
 C         -4.8733168730       -3.9579979590        0.0017926866
 C         -6.0064236882       -3.1474853314       -0.0198522539
 C         -5.8902116210       -1.7769869942       -0.0266428555
 C         -4.6374441713       -1.1448047610       -0.0122917496
 C         -4.4855938022        0.3004917257       -0.0154315260
 C         -5.5937012696        1.1590524410       -0.0264368516
 C         -5.4564416672        2.5272737459       -0.0256782754
 C         -4.1902311060        3.1039605809       -0.0130090105
 C         -3.0777783676        2.2993498862       -0.0029110049
 C         -3.1972444318        0.9022339288       -0.0049071375
 C         -2.0788388401        0.0251693618        0.0059305951
 C          0.2762197016        2.0969842369       -1.2069788885
 C          0.9619025250        3.2977133719       -1.2102379976
 H          1.8632864167        4.8305787748       -0.0218839620
 H          1.2837176413        3.7597474262        2.1222502518
 H          0.0561095971        1.6127255975        2.1375052212
 H          1.2824966560       -3.3595614949        0.0878438400
 H          3.8883783100       -3.2972299867        0.0768259645
 H          6.2308017604       -2.5939634180       -0.0050157376
 H          8.4376470692       -1.2254405517       -0.0401620710
 H          7.9700540430        1.3542632751       -0.0450527092
 H         -2.7268421961       -3.9664395983        0.0301767995
 H         -4.9779000219       -5.0328342918        0.0077035580
 H         -6.9877670771       -3.5994842255       -0.0313561350
 H         -6.7953686416       -1.1912710942       -0.0439441422
 H         -6.5904310540        0.7489219080       -0.0347510869
 H         -6.3345965288        3.1560130292       -0.0338734903
 H         -4.0822199267        4.1784350306       -0.0105798552
 H         -2.0968109215        2.7473238543        0.0081268102
 H         -0.0131876436        1.6191812557       -2.1312838593
 H          1.2140058070        3.7663957714       -2.1492926193
  51
        -83.64984094
 C          0.3559430979        4.9746008342       -0.0991920619
 C          0.2586595181        4.2970049775        1.1053198158
 C         -0.1321607083        2.9700936635        1.1268878139
 C         -0.4275968840        2.3220184218       -0.0669371864
 N         -0.8091650444        0.9626577103       -0.0486533458
 C          0.0485611792       -0.1156287127       -0.0269135619
 C          1.4753637756       -0.0577899290       -0.0491068731
 C          2.3573528164        0.9886435148       -0.1768043039
 C          3.6958951345        0.5814815174       -0.1557793925
 C          3.8528992714       -0.7765472537       -0.0122303905
 C          5.0698491650       -1.5169968529        0.0509772043
 C          5.2353114235       -2.8700127136        0.2010565327
 C          6.5860076909       -3.2629585427        0.2260874856
 C          7.4411000953       -2.2148942311        0.0954176677
 S          6.6135506328       -0.7161956254       -0.0622495408
 S          2.3101282292       -1.5745866595        0.0961910928
 N         -0.6005038212       -1.2592131745        0.0125904799
 C         -1.9169309611       -0.9438341826        0.0165406103
 C         -3.0307434377       -1.8291432448        0.0482274824
 C         -2.8507995628       -3.2154535181        0.0888568610
 C         -3.9367844332       -4.0544040478        0.1156080643
 C         -5.2202327982       -3.5120983337        0.1010166115
 C         -5.4080940251       -2.1500880893        0.0620482577
 C         -4.3241935266       -1.2590965559        0.0354410510
 C         -4.4909051683        0.1840364594        0.0005739423
 C         -5.7604251904        0.7785288574       -0.0104854211
 C         -5.9274956932        2.1430890223       -0.0357552152
 C         -4.8186025772        2.9833127595       -0.0461405437
 C         -3.5567295728        2.4423638308       -0.0376715313
 C         -3.3651584995        1.0532670244       -0.0202667608
 C         -2.0816268785        0.4419036905       -0.0198519854
 C         -0.3279263900        2.9986990059       -1.2777899748
 C          0.0620631264        4.3259008218       -1.2879135711
 H          0.6625312030        6.0093918982       -0.1117859438
 H          0.4878728334        4.8016731942        2.0315638533
 H         -0.2114910610        2.4292979511        2.0581695974
 H          2.0613311757        2.0153332077       -0.2874738763
 H          4.5281953191        1.2575959614       -0.2431214360
 H          4.4044610153       -3.5470965813        0.2890413620
 H          6.9082115914       -4.2828717092        0.3366080470
 H          8.5125661599       -2.2239247993        0.0808953856
 H         -1.8398797116       -3.5919664239        0.0980489136
 H         -3.8030862212       -5.1254972649        0.1474084922
 H         -6.0786361607       -4.1679819004        0.1209239831
 H         -6.4199523767       -1.7775757242        0.0529481105
 H         -6.6425122139        0.1592840486        0.0011388550
 H         -6.9222866801        2.5635052645       -0.0450665335
 H         -4.9485995751        4.0552750979       -0.0607401776
 H         -2.6991363176        3.0960305283       -0.0426854792
 H         -0.5585990593        2.4799488459       -2.1963639424
 H          0.1422851512        4.8520658963       -2.2268608616
  51
        -83.64970145
 C          0.4089257061        4.9181486583       -0.3659886684
 C          0.4957017068        4.2469907349        0.8427744268
 C          0.0848129921        2.9293564396        0.9380171816
 C         -0.4160559257        2.2838323125       -0.1864139549
 N         -0.8129673652        0.9324549748       -0.1013800488
 C          0.0348184704       -0.1543081425       -0.0830338934
 C          1.4621467600       -0.0984509180       -0.1358127802
 C          2.3273065415        0.9188966660       -0.4598955255
 C          3.6714168760        0.5359985186       -0.3957584643
 C          3.8497442285       -0.7752257439       -0.0244350899
 C          5.0796186363       -1.4763789576        0.1475900927
 C          5.2711178873       -2.7820857722        0.5197189480
 C          6.6291379899       -3.1410858089        0.5996949705
 C          7.4635770375       -2.1142397546        0.2910034897
 S          6.6072033695       -0.6779513999       -0.1080444581
 S          2.3199315744       -1.5600320755        0.2448229538
 N         -0.6232169058       -1.2904744733       -0.0125766860
 C         -1.9370202420       -0.9618534409        0.0121739790
 C         -3.0594026626       -1.8360087044        0.0547068178
 C         -2.8944982581       -3.2247765779        0.0681146357
 C         -3.9893867680       -4.0524268181        0.0821242908
 C         -5.2671069428       -3.4964899227        0.0815175535
 C         -5.4403438770       -2.1320159259        0.0739229218
 C         -4.3469419329       -1.2524430379        0.0644002931
 C         -4.4987416108        0.1926573237        0.0705418377
 C         -5.7603579481        0.8002426799        0.1364444275
 C         -5.9121935026        2.1665783820        0.1598996563
 C         -4.7948694740        2.9948995508        0.1261545020
 C         -3.5403990478        2.4408196339        0.0609612750
 C         -3.3649052990        1.0500467930        0.0240324325
 C         -2.0892347834        0.4248041058       -0.0359913617
 C         -0.5022932936        2.9545305974       -1.4019547107
 C         -0.0907939984        4.2722982101       -1.4856050595
 H          0.7315425294        5.9456906393       -0.4363865562
 H          0.8848843882        4.7496518884        1.7151227138
 H          0.1497792824        2.3934806220        1.8731702636
 H          2.0141243362        1.9047646247       -0.7491648570
 H          4.4927697979        1.1951045934       -0.6153136482
 H          4.4540792359       -3.4498897871        0.7257925685
 H          6.9713521458       -4.1221750996        0.8761110622
 H          8.5348760334       -2.1054006391        0.2711120772
 H         -1.8877970572       -3.6124701243        0.0619026984
 H         -3.8671804918       -5.1253632307        0.0898312478
 H         -6.1323798949       -4.1435589660        0.0863347835
 H         -6.4480417547       -1.7482473499        0.0708076314
 H         -6.6478876366        0.1900468588        0.1772567713
 H         -6.9011195351        2.5975221217        0.2116251233
 H         -4.9122753636        4.0679804660        0.1550751183
 H         -2.6760421541        3.0853465504        0.0477553219
 H         -0.8941329488        2.4384034644       -2.2659335035
 H         -0.1579673589        4.7941459407       -2.4281346539
