  82
       -127.52649613
 C          9.3596189477       -1.8158569513        0.5934691478
 C          8.8774841421       -0.3812553482        0.3340761460
 C          9.3795413360        0.5046762208        1.4774764852
 C          9.4813263237        0.1419526665       -0.9771543680
 C          7.3620887914       -0.3842131815        0.2147926061
 C          6.5330622387        0.3333846142        1.0700267788
 C          5.1577772477        0.3095550541        0.9276699405
 C          4.5770421427       -0.4451582274       -0.0787702546
 N          3.1617949684       -0.4722134735       -0.2356233090
 C          2.6577093855       -0.0611860671       -1.4672343818
 O          3.4108679120        0.3563819626       -2.3393090658
 C          1.2163228113       -0.1214487249       -1.6248927588
 C          0.6396329350        0.2672096436       -2.8527722122
 C         -0.7194132440        0.1999211982       -3.0236317252
 C         -1.5502854745       -0.2230124342       -1.9836100167
 C         -1.0144969038       -0.5868367665       -0.7418142177
 C         -1.8042709876       -1.0194864045        0.3559787349
 N         -3.2114504821       -0.9754024840        0.2709696300
 C         -3.9328930353       -2.1543291038        0.2885217215
 C         -3.2510313935       -3.3779289466        0.3624155860
 C         -3.9402874448       -4.5681320461        0.4080234849
 C         -5.3254807345       -4.5651533763        0.3535739292
 C         -5.9992046916       -3.3645530590        0.2253345471
 C         -5.3317232485       -2.1476816791        0.1860030211
 C         -6.1184219586       -0.8709319440       -0.0166645703
 C         -6.8291286747       -0.9575853600       -1.3815701956
 C         -7.1536350306       -0.7370365120        1.1166626475
 C         -5.2307738962        0.3560221366       -0.0030384989
 C         -5.8206917170        1.6123833547       -0.1341115997
 C         -5.1027996969        2.7890739842       -0.0767680562
 C         -3.7357279122        2.7063604936        0.1511244485
 C         -3.1187581216        1.4502806576        0.2786439211
 O         -1.7901349017        1.5803848837        0.5229197796
 C         -1.5209913599        2.9105392564        0.5438445788
 C         -0.2827962391        3.4951353671        0.7436431295
 C         -0.2310876476        4.8764770161        0.7188123932
 C         -1.3743199538        5.6451025889        0.5045929238
 C         -2.6080013934        5.0587678467        0.3025171305
 C         -2.6834599176        3.6718684864        0.3192598833
 C         -3.8402730526        0.2474794464        0.1692003330
 C         -1.2061803420       -1.4494658861        1.5575675493
 C          0.1497533451       -1.4157126650        1.7112969055
 C          0.9742482529       -0.9547757947        0.6549502654
 C          0.3980004527       -0.5513153706       -0.5654667382
 C          2.4081210728       -0.9185947904        0.8498548669
 O          2.9567222257       -1.2779067909        1.8863943733
 C          5.3854788832       -1.1748407387       -0.9390763669
 C          6.7561198647       -1.1362615420       -0.7906563538
 H          9.0848023095       -2.4793737156       -0.2215165678
 H         10.4426033018       -1.8340879352        0.6981702623
 H          8.9164245295       -2.2001127563        1.5096912795
 H         10.4667548783        0.4691218440        1.5130359102
 H          9.0011457883        0.1582378254        2.4362016964
 H          9.0825187264        1.5401338807        1.3288048905
 H          9.2176274318       -0.4938848813       -1.8172397384
 H          9.1168109031        1.1458777628       -1.1836015699
 H         10.5664249414        0.1758033769       -0.9025862113
 H          6.9485084399        0.9324107356        1.8637341478
 H          4.5331113074        0.8755800011        1.6014398372
 H          1.2986401736        0.6081491112       -3.6351654907
 H         -1.1637575650        0.4889603474       -3.9648884218
 H         -2.6187211205       -0.2573762163       -2.1428122893
 H         -2.1732069562       -3.3834820284        0.3721556759
 H         -3.3978597330       -5.4984757080        0.4733723514
 H         -5.8763094861       -5.4923062114        0.3870788143
 H         -7.0752530270       -3.3837730733        0.1481453709
 H         -6.0944030264       -1.0682418201       -2.1767762118
 H         -7.4994770881       -1.8114553655       -1.4133593985
 H         -7.4095783901       -0.0598344304       -1.5731476903
 H         -6.6445281501       -0.6576849079        2.0750852689
 H         -7.7686849056        0.1473611845        0.9807720475
 H         -7.8084992464       -1.6026919953        1.1461133164
 H         -6.8864036739        1.6738620312       -0.2865905259
 H         -5.5880564575        3.7448677022       -0.1902010412
 H          0.5939757064        2.8895015837        0.9049146404
 H          0.7163347170        5.3713962155        0.8669727013
 H         -1.2886651123        6.7211828753        0.4946304698
 H         -3.4904073942        5.6563110706        0.1335260609
 H         -1.8492867548       -1.7516878058        2.3720200211
 H          0.6280211749       -1.7085923214        2.6320376235
 H          4.9374223923       -1.7656054314       -1.7231792504
 H          7.3603597991       -1.7129580562       -1.4744050159
