  92
  -146.208677900500       0.367437157712871      !
 C          0.4024920226       -4.6345344893       -3.6019923749
 C         -0.5055730505       -4.1540114367       -2.4701147402
 C         -1.9767865791       -4.1692580413       -2.8913338146
 C         -0.3367212898       -4.9899126782       -1.2236333776
 C         -0.4096431443       -6.3739571448       -1.2887331321
 C         -0.2724075823       -7.1440963381       -0.1497138664
 C         -0.0682907986       -6.5388642372        1.0747495458
 C         -0.0063560247       -5.1562682772        1.1833745296
 C          0.2130531534       -4.5079293386        2.5285723703
 C         -0.8871677720       -4.9105746148        3.5110476968
 C          1.5999893243       -4.8716764470        3.0609780826
 C         -0.1413771827       -4.3966702769        0.0236864277
 N         -0.0826015630       -2.9651208718        0.1039339581
 C         -1.2962503946       -2.3011250493        0.2360618474
 O         -2.3481526752       -2.9273946740        0.3519604688
 C         -1.2282549004       -0.8524928889        0.2049056492
 C         -2.4143656364       -0.1063369980        0.2714567088
 C         -2.3648288678        1.2722398386        0.2127633224
 N         -3.5706879191        2.0198407814        0.2448657449
 C         -3.8303482700        2.8846873810        1.2924200834
 C         -2.9632853262        3.0186369435        2.3767736098
 C         -3.2495753606        3.9017425345        3.4004839448
 C         -4.4082233054        4.6619328238        3.3720701110
 C         -5.2963075167        4.5228702078        2.3193508199
 C         -5.0182684342        3.6389198920        1.2896051898
 O         -5.9427818441        3.5284782129        0.2916791864
 C         -5.6910502519        2.6420849486       -0.7159989075
 C         -6.6479429792        2.5249813467       -1.7112738873
 C         -6.4409721968        1.6635028706       -2.7743792182
 C         -5.2663833480        0.9309072416       -2.8471880233
 C         -4.3071224733        1.0404621121       -1.8589559447
 C         -4.5073980915        1.8827796432       -0.7654646456
 C         -1.1489473645        1.9485464872        0.1033521876
 C          0.0561571821        1.2286177054        0.0446947536
 C          1.3038011976        1.8659827071       -0.0649111070
 C          2.4732104457        1.1087330030       -0.1288940719
 N          3.7208247331        1.7802665915       -0.2368859201
 C          4.6370737184        1.7351496118        0.7978155148
 C          4.3839018430        1.0485500503        1.9847372307
 C          5.3197692298        1.0355301541        3.0011671847
 C          6.5226822177        1.7100597784        2.8604215430
 C          6.7864173339        2.4112237043        1.6964061404
 C          5.8540982870        2.4303923210        0.6719664793
 O          6.1618824468        3.1568305038       -0.4431109398
 C          5.2584315146        3.1685755905       -1.4665050279
 C          5.5922373678        3.8838855002       -2.6048985616
 C          4.7226393881        3.9184816916       -3.6816517220
 C          3.5242961025        3.2245151042       -3.6227938192
 C          3.1821651038        2.5089725363       -2.4910740850
 C          4.0336770265        2.4804115862       -1.3869578958
 C          2.4392139703       -0.2706142578       -0.0935430062
 C          1.2072886674       -0.9358443426        0.0080028985
 C          0.0121030294       -0.1951482774        0.0875240240
 C          1.1773410927       -2.3867203383        0.0008708115
 O          2.1845716422       -3.0851881221       -0.0954366880
 H          0.1115056096       -5.6214120472       -3.9500310175
 H          1.4333653407       -4.6767293359       -3.2588660626
 H          0.3442012929       -3.9472993034       -4.4440273234
 H         -0.2291456073       -3.1217134263       -2.2441425255
 H         -2.5942608836       -3.8194491364       -2.0682036099
 H         -2.1342912256       -3.5231202683       -3.7530478204
 H         -2.2878591731       -5.1780190843       -3.1508101563
 H         -0.5758735512       -6.8572960252       -2.2385029455
 H         -0.3264053894       -8.2213591461       -0.2174064854
 H          0.0403809443       -7.1496497246        1.9573859619
 H          0.1723274967       -3.4232445066        2.4098014016
 H         -0.8670113272       -5.9795662661        3.7035357430
 H         -1.8602921347       -4.6511433487        3.1011563715
 H         -0.7562718408       -4.3889612033        4.4573903723
 H          1.7885336949       -4.3665484553        4.0064683317
 H          1.6838173627       -5.9435614394        3.2184170660
 H          2.3565969605       -4.5672098418        2.3423188351
 H         -3.3503670561       -0.6315929439        0.3703335911
 H         -2.0679572516        2.4196677452        2.4084633937
 H         -2.5629649837        3.9908219950        4.2276998994
 H         -4.6280893446        5.3524330745        4.1702876478
 H         -6.2149416405        5.0855920654        2.2766139070
 H         -7.5435190584        3.1199216372       -1.6319650564
 H         -7.1899977178        1.5723697461       -3.5444750065
 H         -5.0916648896        0.2673456020       -3.6795015553
 H         -3.3947703801        0.4714918308       -1.9234696661
 H         -1.1340136441        3.0259027343        0.0364298778
 H          1.3573106720        2.9440785358       -0.0823708121
 H          3.4484943033        0.5258792290        2.0975554144
 H          5.1044572306        0.4951285560        3.9096833376
 H          7.2519552597        1.6967330360        3.6544879474
 H          7.7078856548        2.9540867958        1.5600650171
 H          6.5382436171        4.4006908701       -2.6259490464
 H          4.9870758342        4.4765962683       -4.5655235209
 H          2.8503361058        3.2339230104       -4.4651939347
 H          2.2556599069        1.9599723746       -2.4512484048
 H          3.3410069783       -0.8573082930       -0.1585398863
  92
  -146.208422083300       0.280296469658358      !
 C          0.3760270410       -4.7924130566       -3.5756708925
 C         -0.5266442646       -4.2711029358       -2.4578930739
 C         -2.0011197894       -4.3199031112       -2.8645058198
 C         -0.3409301757       -5.0491808738       -1.1770944862
 C         -0.4000903641       -6.4355763173       -1.1800449452
 C         -0.2450674804       -7.1527964388       -0.0094698006
 C         -0.0398459290       -6.4917563688        1.1858452733
 C          0.0033849799       -5.1052259582        1.2333728868
 C          0.2360228141       -4.3918204901        2.5433627560
 C         -0.7476867473       -4.8563940475        3.6172293468
 C          1.6857583611       -4.6044898125        2.9839749057
 C         -0.1436794056       -4.3992906853        0.0408208117
 N         -0.0922079263       -2.9651848879        0.0622721976
 C         -1.3070691605       -2.3014523391        0.1831114805
 O         -2.3587856360       -2.9278992673        0.2999779828
 C         -1.2402200648       -0.8526000254        0.1489742665
 C         -2.4262553049       -0.1067077260        0.2236820755
 C         -2.3755767511        1.2722893424        0.1803761039
 N         -3.5803997001        2.0215324363        0.2269418160
 C         -3.8397805639        2.8626386625        1.2935594889
 C         -2.9769249576        2.9649043134        2.3846694269
 C         -3.2634280844        3.8236162256        3.4288902732
 C         -4.4179425230        4.5903939718        3.4140416365
 C         -5.3012095558        4.4832477001        2.3535614386
 C         -5.0229514622        3.6241742480        1.3029416674
 O         -5.9414328722        3.5459155700        0.2964323642
 C         -5.6919820345        2.6791591884       -0.7290422695
 C         -6.6444118139        2.5914067569       -1.7313774986
 C         -6.4393208291        1.7502131126       -2.8110458636
 C         -5.2718025906        1.0073460922       -2.8921439776
 C         -4.3167485185        1.0879725803       -1.8970559717
 C         -4.5143567768        1.9113190101       -0.7888693847
 C         -1.1598852135        1.9493678746        0.0760400504
 C          0.0448140456        1.2296826919        0.0051347137
 C          1.2928010598        1.8677319735       -0.0959076365
 C          2.4621635770        1.1106311631       -0.1695977851
 N          3.7120958466        1.7801502669       -0.2529499624
 C          4.6292890444        1.6835542359        0.7784544546
 C          4.3706868885        0.9531623309        1.9378875822
 C          5.3094498617        0.8854161496        2.9493535676
 C          6.5212143878        1.5483850676        2.8321639909
 C          6.7892240924        2.2955044505        1.6982736746
 C          5.8536030236        2.3700472888        0.6792873110
 O          6.1662181097        3.1421147720       -0.4030525000
 C          5.2603464615        3.2088888935       -1.4220004843
 C          5.5991031590        3.9727000628       -2.5269595690
 C          4.7292712549        4.0632241806       -3.6001454742
 C          3.5260565697        3.3758137503       -3.5717593388
 C          3.1790192703        2.6123188504       -2.4732915740
 C          4.0299072152        2.5280950271       -1.3714365003
 C          2.4260601316       -0.2692565507       -0.1539579461
 C          1.1943928590       -0.9348840663       -0.0552595106
 C         -0.0003464905       -0.1944352008        0.0334257113
 C          1.1657806130       -2.3855394986       -0.0560165904
 O          2.1738653319       -3.0828418645       -0.1529804553
 H          0.0953266899       -5.7987436508       -3.8731165039
 H          1.4109680528       -4.8043101119       -3.2420987963
 H          0.2992222850       -4.1467605545       -4.4487829463
 H         -0.2590305805       -3.2273331564       -2.2789717660
 H         -2.6143857793       -3.9448892486       -2.0493588918
 H         -2.1745144204       -3.7098635374       -3.7492933986
 H         -2.3026982162       -5.3415656381       -3.0812548394
 H         -0.5673514558       -6.9624672355       -2.1061875596
 H         -0.2848899448       -8.2326529671       -0.0291536940
 H          0.0857001214       -7.0624331505        2.0925433636
 H          0.0811278814       -3.3208917510        2.3948252604
 H         -0.5899183969       -5.9006818550        3.8711205647
 H         -1.7684514800       -4.7358756968        3.2623296222
 H         -0.6211803868       -4.2637750585        4.5214002109
 H          1.8900930893       -4.0568083937        3.9021394390
 H          1.8815120875       -5.6596541250        3.1573580916
 H          2.3568044370       -4.2525344947        2.2046891351
 H         -3.3622447829       -0.6324351479        0.3201092307
 H         -2.0850440520        2.3603143903        2.4050504208
 H         -2.5805324029        3.8882335496        4.2615985460
 H         -4.6385167069        5.2610307625        4.2290397708
 H         -6.2162387294        5.0524239185        2.3203144915
 H         -7.5349897879        3.1927624233       -1.6445194737
 H         -7.1849717493        1.6819848988       -3.5868509375
 H         -5.0993692553        0.3583063682       -3.7363533315
 H         -3.4098007086        0.5109943148       -1.9672451870
 H         -1.1447884897        3.0275922443        0.0246032041
 H          1.3468964292        2.9459359602       -0.0942373813
 H          3.4289487823        0.4388805014        2.0341668024
 H          5.0894985353        0.3099985107        3.8349005759
 H          7.2535873132        1.4906711872        3.6213662442
 H          7.7168107432        2.8324403350        1.5814128857
 H          6.5492263977        4.4822329246       -2.5250613357
 H          4.9970673042        4.6597498717       -4.4575095243
 H          2.8519316549        3.4283370446       -4.4124131457
 H          2.2486355459        2.0686459530       -2.4584298691
 H          3.3272700252       -0.8560744020       -0.2262200901
  92
  -146.208029080400       0.184929416851083      !
 C         -0.0266207744       -5.6131273854       -3.0858018134
 C         -0.8298336173       -4.8656826765       -2.0215576630
 C         -2.3343298784       -5.0651047056       -2.2157232127
 C         -0.4469673990       -5.3024426238       -0.6288384526
 C         -0.4412591428       -6.6485239841       -0.2886548491
 C         -0.0948544764       -7.0553396105        0.9848164636
 C          0.2398784971       -6.1193864882        1.9447800006
 C          0.2206049052       -4.7635897712        1.6517270261
 C          0.5991257823       -3.7456330904        2.7026314202
 C         -0.1206123911       -3.9942579124        4.0280305247
 C          2.1186773667       -3.7554039827        2.8886987199
 C         -0.1194368233       -4.3729843673        0.3551185265
 N         -0.1220450800       -2.9708401314        0.0506433481
 C         -1.3323180232       -2.3005361716        0.1876518449
 O         -2.3657154900       -2.9125884179        0.4503439986
 C         -1.2753584862       -0.8583830908        0.0356026203
 C         -2.4557397703       -0.1045529502        0.1348251125
 C         -2.3997221561        1.2712981910        0.0496214565
 N         -3.5961401508        2.0329670033        0.1378000063
 C         -4.3150021961        2.0844739608        1.3181537923
 C         -3.9003951519        1.4168021357        2.4697330232
 C         -4.6401498729        1.5002506946        3.6337504243
 C         -5.8029372304        2.2537328376        3.6773279855
 C         -6.2229892568        2.9371003397        2.5491905743
 C         -5.4875157303        2.8600906684        1.3778223819
 O         -5.9411795759        3.5722165318        0.3038848649
 C         -5.2345826621        3.4892005842       -0.8612907988
 C         -5.7195966402        4.1894574440       -1.9536969192
 C         -5.0540394060        4.1301264267       -3.1663107347
 C         -3.9089775221        3.3586970907       -3.2874116596
 C         -3.4174108518        2.6566938369       -2.2031451016
 C         -4.0612067455        2.7200533314       -0.9676625251
 C         -1.1853684109        1.9418841504       -0.1019544579
 C          0.0133332715        1.2144546773       -0.1992459014
 C          1.2633410262        1.8437138741       -0.3240985095
 C          2.4256969510        1.0775382036       -0.4467918092
 N          3.6815990778        1.7318728385       -0.5082924619
 C          4.6374159129        1.5040360760        0.4699385691
 C          4.4148850811        0.6508150388        1.5509460568
 C          5.3974096827        0.4447094502        2.5000355697
 C          6.6200094147        1.0903609054        2.4020513101
 C          6.8499732927        1.9660215893        1.3557006807
 C          5.8691822362        2.1804840250        0.4005333056
 O          6.1483317188        3.0818726370       -0.5864710999
 C          5.2002411001        3.2910741381       -1.5453234062
 C          5.5009012769        4.1976054236       -2.5488962902
 C          4.5916333799        4.4335920361       -3.5654985715
 C          3.3904286973        3.7426479929       -3.5879973078
 C          3.0818424833        2.8373006527       -2.5904826959
 C          3.9673225179        2.6131749863       -1.5360189527
 C          2.3718135081       -0.3017768443       -0.4682970024
 C          1.1415979875       -0.9570006718       -0.3120539559
 C         -0.0416779273       -0.2085383645       -0.1595954700
 C          1.1092103085       -2.4059265820       -0.2627818736
 O          2.0977648473       -3.1128930036       -0.4487267248
 H         -0.2688894357       -6.6720987591       -3.0904459450
 H          1.0380655830       -5.5010779895       -2.8952476776
 H         -0.2481984497       -5.2099113100       -4.0721658439
 H         -0.6119333920       -3.8008410550       -2.1272562374
 H         -2.8726941805       -4.5116124022       -1.4508066494
 H         -2.6440330556       -4.7085493438       -3.1962809271
 H         -2.5941706868       -6.1172163074       -2.1296090352
 H         -0.7062355881       -7.3881228439       -1.0276362442
 H         -0.0844123166       -8.1074992015        1.2316014017
 H          0.5168642292       -6.4507880239        2.9330797886
 H          0.3066683853       -2.7520110432        2.3544362064
 H          0.2034729214       -4.9244509280        4.4857280088
 H         -1.1950771130       -4.0417428934        3.8668697984
 H          0.0914175040       -3.1834709931        4.7230208285
 H          2.4205603555       -2.9930387035        3.6049847539
 H          2.4500715295       -4.7253658574        3.2512608787
 H          2.6043625780       -3.5608563493        1.9363381815
 H         -3.3912436180       -0.6218999521        0.2723661545
 H         -2.9960393045        0.8319936736        2.4388706912
 H         -4.3031765932        0.9718509528        4.5117598240
 H         -6.3799937340        2.3146099653        4.5861118068
 H         -7.1175272014        3.5389148859        2.5534345323
 H         -6.6203261458        4.7691986151       -1.8315105279
 H         -5.4357082934        4.6769470238       -4.0136431507
 H         -3.3950635977        3.2963227187       -4.2339510490
 H         -2.5341358055        2.0471261785       -2.3016614942
 H         -1.1647098635        3.0208916883       -0.1307027826
 H          1.3262537370        2.9209039690       -0.2934204514
 H          3.4667448174        0.1477836525        1.6389397110
 H          5.2029139536       -0.2273724571        3.3211465392
 H          7.3879118862        0.9217446295        3.1398827110
 H          7.7821369124        2.4990311527        1.2591209616
 H          6.4535235522        4.7012447133       -2.5139515524
 H          4.8285294535        5.1430680028       -4.3420924360
 H          2.6874915477        3.9037486984       -4.3903581848
 H          2.1538410084        2.2902989757       -2.6203265241
 H          3.2618180309       -0.8975576877       -0.5894330417
  92
  -146.207434232500       9.854460048421491E-002 !
 C          0.7112098216       -5.0401528831       -3.0457190892
 C         -0.4472157009       -4.5852666571       -2.1569084709
 C         -1.8002153669       -4.9461160406       -2.7713220527
 C         -0.3164523428       -5.1887377381       -0.7794991972
 C         -0.3541868446       -6.5663630906       -0.6138320476
 C         -0.2245461632       -7.1323471675        0.6394467597
 C         -0.0578045131       -6.3263080266        1.7490842713
 C         -0.0239751161       -4.9445229896        1.6252964577
 C          0.1772917592       -4.0736197469        2.8423131680
 C         -0.8500452747       -4.3895146577        3.9293796799
 C          1.6075908952       -4.2423495335        3.3587540094
 C         -0.1497675377       -4.3920246172        0.3513338218
 N         -0.1044007011       -2.9653543174        0.2050901637
 C         -1.3203951380       -2.2953935982        0.2801275040
 O         -2.3701572218       -2.9139360990        0.4434765380
 C         -1.2513139898       -0.8503907406        0.1684366934
 C         -2.4331535546       -0.0964978071        0.2389377239
 C         -2.3785653534        1.2786405877        0.1396619162
 N         -3.5735053733        2.0404234251        0.2193992059
 C         -4.3252389055        2.0533437609        1.3815326461
 C         -3.9401118649        1.3541219634        2.5248530885
 C         -4.7150375996        1.3952356953        3.6680061841
 C         -5.8851059358        2.1378000017        3.7002562092
 C         -6.2735145954        2.8570419393        2.5833415457
 C         -5.5015492078        2.8235923484        1.4334416990
 O         -5.9239857779        3.5750931754        0.3738719416
 C         -5.1803971478        3.5391070399       -0.7701647788
 C         -5.6302299799        4.2872404188       -1.8458913472
 C         -4.9301631505        4.2751705381       -3.0401176430
 C         -3.7881739045        3.4992569575       -3.1610451573
 C         -3.3320464243        2.7495743213       -2.0934072180
 C         -4.0067630661        2.7698444716       -0.8727985972
 C         -1.1628822886        1.9456743221       -0.0243698257
 C          0.0361316725        1.2172084886       -0.1011440147
 C          1.2808261000        1.8446426561       -0.2769223876
 C          2.4458582297        1.0793547681       -0.3622179700
 N          3.6887718478        1.7438424511       -0.5292656791
 C          4.6603440538        1.6829088818        0.4550364604
 C          4.4729665018        0.9797301343        1.6445973828
 C          5.4655507957        0.9463808277        2.6051053901
 C          6.6619965903        1.6176521539        2.4064263892
 C          6.8592915431        2.3399727343        1.2425122962
 C          5.8689785189        2.3803457034        0.2744869757
 O          6.1136204985        3.1322523773       -0.8392506378
 C          5.1555448996        3.1633900899       -1.8107733882
 C          5.4257337056        3.9062404500       -2.9485074635
 C          4.5013123031        3.9594949134       -3.9775949380
 C          3.3133415775        3.2533411968       -3.8733274610
 C          3.0349715180        2.5101934075       -2.7418611942
 C          3.9398136769        2.4671448748       -1.6811731816
 C          2.4066981337       -0.2968891953       -0.2706889955
 C          1.1781453065       -0.9512018515       -0.0892129370
 C         -0.0124495414       -0.2034807538       -0.0055785877
 C          1.1500391919       -2.3982978722        0.0149541343
 O          2.1566934169       -3.1014538203       -0.0473222244
 H          1.6567787376       -4.7706106520       -2.5815837990
 H          0.6504793046       -4.5612909324       -4.0212341737
 H          0.6911391685       -6.1170970005       -3.1884695340
 H         -0.3978936413       -3.4975482922       -2.0749273036
 H         -2.6007207249       -4.6130875686       -2.1152858480
 H         -1.9166450782       -4.4627550475       -3.7395685249
 H         -1.8905252612       -6.0200356129       -2.9094521533
 H         -0.4835504041       -7.2045677310       -1.4740635411
 H         -0.2523079180       -8.2068669951        0.7522237859
 H          0.0482424218       -6.7791864098        2.7224435434
 H          0.0438146626       -3.0281496743        2.5561793353
 H         -0.7185156214       -5.3966492374        4.3142831892
 H         -1.8553406901       -4.3012247805        3.5245165634
 H         -0.7450039554       -3.6914996633        4.7580196677
 H          1.7884667965       -3.5809723923        4.2041705328
 H          1.7816355952       -5.2672433592        3.6759457663
 H          2.3119593138       -4.0026723926        2.5662586983
 H         -3.3699263324       -0.6150682910        0.3623016844
 H         -3.0301500248        0.7778444836        2.5053046785
 H         -4.3997957378        0.8416080272        4.5386051371
 H         -6.4908427716        2.1638726786        4.5918537265
 H         -7.1707912253        3.4548256914        2.5798172792
 H         -6.5318308445        4.8659835838       -1.7251597009
 H         -5.2833613801        4.8606043858       -3.8738851723
 H         -3.2482252232        3.4712613977       -4.0946480468
 H         -2.4516704434        2.1363990311       -2.1946357346
 H         -1.1411200269        3.0237332598       -0.0764504359
 H          1.3372313605        2.9214309977       -0.3296657104
 H          3.5434497077        0.4595851892        1.8056030267
 H          5.2999874750        0.3907003299        3.5147455580
 H          7.4370348798        1.5855976741        3.1553200215
 H          7.7726473086        2.8839038569        1.0627056970
 H          6.3666641543        4.4293457501       -3.0064322765
 H          4.7156920963        4.5400788667       -4.8605232496
 H          2.5978493836        3.2740560409       -4.6804974708
 H          2.1168584780        1.9506034139       -2.6695313191
 H          3.3027331728       -0.8915502184       -0.3431461892
  92
  -146.207094581800       6.879235529347225E-002 !
 C          0.4658661182       -5.1848619811       -3.0993915146
 C         -0.5899415959       -4.6602412589       -2.1256724617
 C         -2.0050787578       -4.9895092939       -2.6029780443
 C         -0.3654684858       -5.2246414949       -0.7439799551
 C         -0.3936960969       -6.5967108451       -0.5356309684
 C         -0.1872177531       -7.1261683343        0.7233562364
 C          0.0483590120       -6.2883350369        1.7962609709
 C          0.0760119190       -4.9109101364        1.6296805972
 C          0.3425659880       -4.0078380197        2.8103149156
 C         -0.6955866573       -4.2281138388        3.9109616254
 C          1.7641659813       -4.2351780031        3.3272491860
 C         -0.1314794019       -4.3954404816        0.3508343241
 N         -0.0998520370       -2.9730632590        0.1662604951
 C         -1.3155433197       -2.3057474848        0.2619413225
 O         -2.3592188022       -2.9242945801        0.4605843644
 C         -1.2533087390       -0.8616923390        0.1327543643
 C         -2.4371241054       -0.1109746808        0.2057944707
 C         -2.3861312550        1.2649082174        0.1129612245
 N         -3.5804217747        2.0262571142        0.1972448888
 C         -4.3428840232        2.0199748659        1.3531198030
 C         -3.9787625318        1.2873525742        2.4824573230
 C         -4.7652045700        1.3089100177        3.6182292858
 C         -5.9261633562        2.0652900815        3.6579495287
 C         -6.2927193212        2.8187667511        2.5564951578
 C         -5.5089569293        2.8050133158        1.4141013759
 O         -5.9096134494        3.5919592241        0.3721563314
 C         -5.1543788587        3.5780374895       -0.7645623647
 C         -5.5800451072        4.3666692307       -1.8210707537
 C         -4.8687007388        4.3781712658       -3.0085769302
 C         -3.7411520204        3.5836943143       -3.1430305039
 C         -3.3090831759        2.7939654959       -2.0943778581
 C         -3.9928480499        2.7922407714       -0.8784845068
 C         -1.1708909399        1.9352411183       -0.0450826860
 C          0.0291703435        1.2099437917       -0.1298068104
 C          1.2728779428        1.8418647955       -0.2974415508
 C          2.4392791759        1.0795708732       -0.3882233264
 N          3.6839087055        1.7463744555       -0.5312206505
 C          4.6402171112        1.6718935141        0.4670378376
 C          4.4311334034        0.9590789213        1.6471923940
 C          5.4080672059        0.9133704444        2.6231374448
 C          6.6102933083        1.5810937934        2.4491764239
 C          6.8292680871        2.3120448778        1.2945097617
 C          5.8546141706        2.3651372063        0.3112781480
 O          6.1201524673        3.1246359010       -0.7924375165
 C          5.1722842195        3.1779127588       -1.7731975970
 C          5.4587784432        3.9375514803       -2.8956484844
 C          4.5450623963        4.0140431106       -3.9328588806
 C          3.3513782167        3.3144849866       -3.8522228534
 C          3.0569279238        2.5542016755       -2.7363185082
 C          3.9509794662        2.4873016761       -1.6678443890
 C          2.4018014871       -0.2979027307       -0.3180190408
 C          1.1743576477       -0.9564081144       -0.1446518049
 C         -0.0167538201       -0.2115392600       -0.0463853694
 C          1.1489286352       -2.4044571009       -0.0567415777
 O          2.1524709024       -3.1077192987       -0.1543292237
 H          0.3902098918       -6.2626475656       -3.2132395427
 H          1.4595644627       -4.9452522302       -2.7287390724
 H          0.3376100254       -4.7258261318       -4.0778640915
 H         -0.4946617064       -3.5733038757       -2.0848514604
 H         -2.7290625761       -4.6003652518       -1.8915455538
 H         -2.1917499395       -4.5393306769       -3.5761494316
 H         -2.1453179701       -6.0637949859       -2.6865062723
 H         -0.5766063625       -7.2596005056       -1.3669423187
 H         -0.2084019110       -8.1968480187        0.8691085097
 H          0.2123465660       -6.7120836345        2.7748557725
 H          0.2668587474       -2.9671883692        2.4877457009
 H         -0.6377024836       -5.2382600123        4.3067588462
 H         -1.6947512924       -4.0696622062        3.5117699912
 H         -0.5303735221       -3.5286983419        4.7287035221
 H          1.9874110265       -3.5476119860        4.1410843196
 H          1.8849593823       -5.2522132253        3.6903928267
 H          2.4749982989       -4.0693147101        2.5216386892
 H         -3.3723420314       -0.6328496876        0.3271693102
 H         -3.0756080076        0.7007474170        2.4588032919
 H         -4.4654318982        0.7297220582        4.4775037088
 H         -6.5407205741        2.0764837167        4.5438079106
 H         -7.1813408135        3.4292914685        2.5594374066
 H         -6.4715839163        4.9586653711       -1.6905288167
 H         -5.2020941657        4.9962039477       -3.8267818141
 H         -3.1940277883        3.5719192724       -4.0727976301
 H         -2.4406336381        2.1661340292       -2.2076914403
 H         -1.1506559141        3.0138287621       -0.0856597856
 H          1.3273479572        2.9193370285       -0.3360849109
 H          3.4973018042        0.4410683432        1.7887968834
 H          5.2255317854        0.3509295546        3.5253865770
 H          7.3728232746        1.5400153366        3.2103765247
 H          7.7477326650        2.8533549354        1.1339293860
 H          6.4037225280        4.4550729599       -2.9356397871
 H          4.7722492958        4.6076889299       -4.8038341289
 H          2.6440905442        3.3536970894       -4.6659560250
 H          2.1346093477        1.9994415068       -2.6822382648
 H          3.2990936560       -0.8899389751       -0.3958492514
