  112
       -188.15917279
 N         -1.5051710160       -3.6346694110        0.9071580590
 C         -1.0666153911       -2.5767664659        0.8833195421
 C         -0.5284974786       -1.2675163187        0.8505692352
 C          0.8645397642       -1.0965726090        0.8364723243
 N          1.7103348072       -2.2045800302        0.8463188498
 C          2.7741274091       -2.3833932195       -0.0265919870
 C          2.9955732451       -1.7914983404       -1.2586895323
 C          4.1466396388       -2.1402228622       -1.9405196351
 C          5.0376333014       -3.0742323836       -1.4215774735
 C          4.7810080399       -3.7177468748       -0.2259755997
 C          3.6331864434       -3.3810190183        0.4767187067
 C          3.0502212633       -3.8376699358        1.7093414501
 C          3.4402186557       -4.7756634550        2.6541328006
 C          2.6502695784       -4.9559795228        3.7724533652
 C          1.4919945268       -4.2080776415        3.9592808085
 C          1.0856396393       -3.2647406367        3.0335520586
 C          1.8659969495       -3.0950797295        1.9025113899
 C          1.3937884388        0.2058665225        0.8084423748
 N          2.7753133359        0.4042303097        0.8098177273
 C          3.6467674084       -0.2076598925        1.6989796851
 C          3.3773924245       -0.7700930733        2.9351609048
 C          4.4371944995       -1.3159008722        3.6349420028
 C          5.7333778264       -1.2803248247        3.1288840492
 C          6.0141484814       -0.6679446876        1.9230993671
 C          4.9632956151       -0.1170153060        1.2034125802
 C          4.8762592685        0.5877293142       -0.0419999995
 C          5.7948858560        0.9447278082       -1.0185129920
 S          7.5087009478        0.6332706735       -1.0040743633
 C          7.6842588400        1.4118323669       -2.5632965968
 C          8.8702679951        1.5696187469       -3.2597949697
 C          8.8346228544        2.2120972179       -4.4824267907
 C          7.6333015084        2.6876777639       -4.9993729383
 C          6.4526945561        2.5290881968       -4.3035611534
 C          6.4619049079        1.8857322412       -3.0688002051
 C          5.3655327358        1.6118318176       -2.1768078753
 C          4.0110864060        1.9088827165       -2.3502853619
 C          3.0791004433        1.5543798026       -1.3995815903
 C          3.5179485963        0.9034168303       -0.2510333137
 C          0.5204379970        1.3033674350        0.7809973239
 C          1.0575433137        2.6127875287        0.7408730011
 N          1.4923264165        3.6717762143        0.7023290255
 C         -0.8728912503        1.1321911269        0.7866052388
 N         -1.7181291423        2.2403154916        0.7523120703
 C         -2.7925600661        2.3805738698       -0.1147124332
 C         -3.0284272213        1.7358500064       -1.3172787758
 C         -4.1883859543        2.0538714654       -1.9991380210
 C         -5.0741283328        3.0087628424       -1.5101360951
 C         -4.8031884608        3.7041103787       -0.3471752407
 C         -3.6461098769        3.3992700967        0.3548361819
 C         -3.0487364326        3.9095952375        1.5591504815
 C         -3.4273533750        4.8886528738        2.4661483483
 C         -2.6233983586        5.1187573325        3.5651983570
 C         -1.4625906264        4.3797502423        3.7706666664
 C         -1.0676514886        3.3958814008        2.8829389048
 C         -1.8617311141        3.1763953140        1.7702177837
 C         -1.4018414732       -0.1698221659        0.8280247281
 N         -2.7829001659       -0.3708438421        0.8407208236
 C         -3.6597290086        0.2810238931        1.6952280484
 C         -3.3974088989        0.9037672373        2.9037237611
 C         -4.4622137360        1.4782204723        3.5722728856
 C         -5.7562175116        1.4131123241        3.0634768913
 C         -6.0296080084        0.7436047336        1.8867145307
 C         -4.9737679570        0.1630502254        1.1983154653
 C         -4.8790776279       -0.5986914099       -0.0126200308
 C         -5.7901167664       -0.9971696070       -0.9803473075
 S         -7.5026951964       -0.6792583189       -0.9975460709
 C         -7.6642996863       -1.5180693384       -2.5270044938
 C         -8.8419309363       -1.6945699360       -3.2331753845
 C         -8.7947797921       -2.3854375079       -4.4288016452
 C         -7.5906427148       -2.8909225313       -4.9095164209
 C         -6.4182575940       -2.7129358112       -4.2046020007
 C         -6.4391127036       -2.0201826674       -2.9970249628
 C         -5.3515373178       -1.7139932474       -2.1050520427
 C         -3.9964081226       -2.0208435726       -2.2539301541
 C         -3.0716881286       -1.6242257971       -1.3130345441
 C         -3.5192778339       -0.9218165922       -0.1987016266
 H          2.2958968928       -1.0839557132       -1.6789643847
 H          4.3550580771       -1.6759812809       -2.8928096506
 H          5.9334244163       -3.3105906845       -1.9754563564
 H          5.4556740400       -4.4678924681        0.1564516713
 H          4.3452386576       -5.3462630640        2.5138388405
 H          2.9339748238       -5.6835741731        4.5178325289
 H          0.8971769972       -4.3636003991        4.8467109434
 H          0.1897966185       -2.6849124375        3.2001172949
 H          2.3779932982       -0.7824254753        3.3444901653
 H          4.2515920079       -1.7786646960        4.5922802700
 H          6.5331895464       -1.7250844743        3.7011220683
 H          7.0225811658       -0.6123829552        1.5434426887
 H          9.7966046861        1.1970912161       -2.8507951387
 H          9.7483336391        2.3456734858       -5.0416094245
 H          7.6275286119        3.1875033098       -5.9564643993
 H          5.5237643456        2.9025068973       -4.7073024901
 H          3.6930438206        2.4165557364       -3.2474853657
 H          2.0341408557        1.7760392034       -1.5546650056
 H         -2.3328850832        1.0117095028       -1.7155268852
 H         -4.4082809629        1.5483511547       -2.9275310669
 H         -5.9783405109        3.2183381493       -2.0610663108
 H         -5.4748169603        4.4684797667        0.0117475315
 H         -4.3341361280        5.4528207316        2.3117763188
 H         -2.8977797886        5.8792041136        4.2806658001
 H         -0.8567785539        4.5742859543        4.6428232181
 H         -0.1698745484        2.8234833785        3.0642965832
 H         -2.3995915684        0.9406684669        3.3154214718
 H         -4.2824900653        1.9871591528        4.5070425840
 H         -6.5603071720        1.8802300972        3.6114201789
 H         -7.0363601047        0.6651526014        1.5066791835
 H         -9.7714123245       -1.3027313852       -2.8503098875
 H         -9.7023018281       -2.5369076162       -4.9933305842
 H         -7.5758462427       -3.4285051903       -5.8458654827
 H         -5.4863612914       -3.1063386024       -4.5815865382
 H         -3.6718134730       -2.5673150882       -3.1256145326
 H         -2.0255193783       -1.8513658906       -1.4508515700
