  112
  -187.425230220100       0.538433100278619      !
 N         -1.5051710160       -3.6346694110        0.9071580590
 C         -1.0666153911       -2.5767664659        0.8833195421
 C         -0.5284974786       -1.2675163187        0.8505692352
 C          0.8645397642       -1.0965726090        0.8364723243
 N          1.7103348072       -2.2045800302        0.8463188498
 C          2.7741274091       -2.3833932195       -0.0265919870
 C          2.9955732451       -1.7914983404       -1.2586895323
 C          4.1466396388       -2.1402228622       -1.9405196351
 C          5.0376333014       -3.0742323836       -1.4215774735
 C          4.7810080399       -3.7177468748       -0.2259755997
 C          3.6331864434       -3.3810190183        0.4767187067
 C          3.0502212633       -3.8376699358        1.7093414501
 C          3.4402186557       -4.7756634550        2.6541328006
 C          2.6502695784       -4.9559795228        3.7724533652
 C          1.4919945268       -4.2080776415        3.9592808085
 C          1.0856396393       -3.2647406367        3.0335520586
 C          1.8659969495       -3.0950797295        1.9025113899
 C          1.3937884388        0.2058665225        0.8084423748
 N          2.7753133359        0.4042303097        0.8098177273
 C          3.6467674084       -0.2076598925        1.6989796851
 C          3.3773924245       -0.7700930733        2.9351609048
 C          4.4371944995       -1.3159008722        3.6349420028
 C          5.7333778264       -1.2803248247        3.1288840492
 C          6.0141484814       -0.6679446876        1.9230993671
 C          4.9632956151       -0.1170153060        1.2034125802
 C          4.8762592685        0.5877293142       -0.0419999995
 C          5.7948858560        0.9447278082       -1.0185129920
 S          7.5087009478        0.6332706735       -1.0040743633
 C          7.6842588400        1.4118323669       -2.5632965968
 C          8.8702679951        1.5696187469       -3.2597949697
 C          8.8346228544        2.2120972179       -4.4824267907
 C          7.6333015084        2.6876777639       -4.9993729383
 C          6.4526945561        2.5290881968       -4.3035611534
 C          6.4619049079        1.8857322412       -3.0688002051
 C          5.3655327358        1.6118318176       -2.1768078753
 C          4.0110864060        1.9088827165       -2.3502853619
 C          3.0791004433        1.5543798026       -1.3995815903
 C          3.5179485963        0.9034168303       -0.2510333137
 C          0.5204379970        1.3033674350        0.7809973239
 C          1.0575433137        2.6127875287        0.7408730011
 N          1.4923264165        3.6717762143        0.7023290255
 C         -0.8728912503        1.1321911269        0.7866052388
 N         -1.7181291423        2.2403154916        0.7523120703
 C         -2.7925600661        2.3805738698       -0.1147124332
 C         -3.0284272213        1.7358500064       -1.3172787758
 C         -4.1883859543        2.0538714654       -1.9991380210
 C         -5.0741283328        3.0087628424       -1.5101360951
 C         -4.8031884608        3.7041103787       -0.3471752407
 C         -3.6461098769        3.3992700967        0.3548361819
 C         -3.0487364326        3.9095952375        1.5591504815
 C         -3.4273533750        4.8886528738        2.4661483483
 C         -2.6233983586        5.1187573325        3.5651983570
 C         -1.4625906264        4.3797502423        3.7706666664
 C         -1.0676514886        3.3958814008        2.8829389048
 C         -1.8617311141        3.1763953140        1.7702177837
 C         -1.4018414732       -0.1698221659        0.8280247281
 N         -2.7829001659       -0.3708438421        0.8407208236
 C         -3.6597290086        0.2810238931        1.6952280484
 C         -3.3974088989        0.9037672373        2.9037237611
 C         -4.4622137360        1.4782204723        3.5722728856
 C         -5.7562175116        1.4131123241        3.0634768913
 C         -6.0296080084        0.7436047336        1.8867145307
 C         -4.9737679570        0.1630502254        1.1983154653
 C         -4.8790776279       -0.5986914099       -0.0126200308
 C         -5.7901167664       -0.9971696070       -0.9803473075
 S         -7.5026951964       -0.6792583189       -0.9975460709
 C         -7.6642996863       -1.5180693384       -2.5270044938
 C         -8.8419309363       -1.6945699360       -3.2331753845
 C         -8.7947797921       -2.3854375079       -4.4288016452
 C         -7.5906427148       -2.8909225313       -4.9095164209
 C         -6.4182575940       -2.7129358112       -4.2046020007
 C         -6.4391127036       -2.0201826674       -2.9970249628
 C         -5.3515373178       -1.7139932474       -2.1050520427
 C         -3.9964081226       -2.0208435726       -2.2539301541
 C         -3.0716881286       -1.6242257971       -1.3130345441
 C         -3.5192778339       -0.9218165922       -0.1987016266
 H          2.2958968928       -1.0839557132       -1.6789643847
 H          4.3550580771       -1.6759812809       -2.8928096506
 H          5.9334244163       -3.3105906845       -1.9754563564
 H          5.4556740400       -4.4678924681        0.1564516713
 H          4.3452386576       -5.3462630640        2.5138388405
 H          2.9339748238       -5.6835741731        4.5178325289
 H          0.8971769972       -4.3636003991        4.8467109434
 H          0.1897966185       -2.6849124375        3.2001172949
 H          2.3779932982       -0.7824254753        3.3444901653
 H          4.2515920079       -1.7786646960        4.5922802700
 H          6.5331895464       -1.7250844743        3.7011220683
 H          7.0225811658       -0.6123829552        1.5434426887
 H          9.7966046861        1.1970912161       -2.8507951387
 H          9.7483336391        2.3456734858       -5.0416094245
 H          7.6275286119        3.1875033098       -5.9564643993
 H          5.5237643456        2.9025068973       -4.7073024901
 H          3.6930438206        2.4165557364       -3.2474853657
 H          2.0341408557        1.7760392034       -1.5546650056
 H         -2.3328850832        1.0117095028       -1.7155268852
 H         -4.4082809629        1.5483511547       -2.9275310669
 H         -5.9783405109        3.2183381493       -2.0610663108
 H         -5.4748169603        4.4684797667        0.0117475315
 H         -4.3341361280        5.4528207316        2.3117763188
 H         -2.8977797886        5.8792041136        4.2806658001
 H         -0.8567785539        4.5742859543        4.6428232181
 H         -0.1698745484        2.8234833785        3.0642965832
 H         -2.3995915684        0.9406684669        3.3154214718
 H         -4.2824900653        1.9871591528        4.5070425840
 H         -6.5603071720        1.8802300972        3.6114201789
 H         -7.0363601047        0.6651526014        1.5066791835
 H         -9.7714123245       -1.3027313852       -2.8503098875
 H         -9.7023018281       -2.5369076162       -4.9933305842
 H         -7.5758462427       -3.4285051903       -5.8458654827
 H         -5.4863612914       -3.1063386024       -4.5815865382
 H         -3.6718134730       -2.5673150882       -3.1256145326
 H         -2.0255193783       -1.8513658906       -1.4508515700
  112
  -187.424270660100       0.195051146386872      !
 N         -1.4013823666       -3.5925855534        0.4957808537
 C         -1.0101515080       -2.5161010409        0.5218862500
 C         -0.5177893057       -1.1888905531        0.5449625986
 C          0.8688440820       -0.9738647852        0.5532356804
 N          1.7531439654       -2.0526426567        0.5661221861
 C          2.8536324988       -2.1676578991       -0.2723536889
 C          3.0670236077       -1.5802583005       -1.5078825572
 C          4.2566529448       -1.8596744565       -2.1550417584
 C          5.1990697134       -2.7154808279       -1.5937137567
 C          4.9581029483       -3.3527055220       -0.3915127306
 C          3.7683911131       -3.0906772045        0.2726728007
 C          3.1835846042       -3.5698815273        1.4960888881
 C          3.6129044970       -4.4604518637        2.4690766313
 C          2.8021483090       -4.6850475187        3.5641592361
 C          1.5819926849       -4.0302661582        3.6985765704
 C          1.1357940035       -3.1345200737        2.7445239020
 C          1.9417887928       -2.9158431952        1.6406750716
 C          1.3587853717        0.3429763761        0.5785297475
 N          2.7357886720        0.5645175206        0.6954498667
 C          3.4911254561       -0.0254168942        1.6996272090
 C          3.0734294956       -0.5168689450        2.9247280970
 C          4.0357716735       -1.0446671359        3.7648423056
 C          5.3790244629       -1.0684690788        3.4005594775
 C          5.8042017847       -0.5394534950        2.1977278841
 C          4.8531830915       -0.0041902491        1.3401089497
 C          4.9163103470        0.6257465309        0.0543128473
 C          5.9364503973        0.8655989283       -0.8537922515
 S          7.6153937410        0.4430807277       -0.6671970982
 C          7.9708787034        1.0729530832       -2.2619316205
 C          9.2148754144        1.0769363431       -2.8692125339
 C          9.3250990659        1.6090866824       -4.1394018742
 C          8.2098438442        2.1289114895       -4.7893160288
 C          6.9712849439        2.1246888912       -4.1813644283
 C          6.8330565816        1.5934964432       -2.9017531600
 C          5.6516125531        1.4714847159       -2.0874982457
 C          4.3403089657        1.8475964057       -2.3936352909
 C          3.3071048873        1.6038086057       -1.5150624585
 C          3.5998003372        0.9817403555       -0.3056590780
 C          0.4551290982        1.4137853407        0.5567821434
 C          0.9598646755        2.7351612995        0.4986584738
 N          1.3781488060        3.7985265886        0.4158148632
 C         -0.9334099935        1.2004627045        0.5873897558
 N         -1.8011994978        2.2868300158        0.6644044177
 C         -2.9632304555        2.4367105361       -0.0805057357
 C         -3.3074492682        1.8466578021       -1.2849644767
 C         -4.5454201104        2.1536558521       -1.8192166716
 C         -5.4036676880        3.0474343359       -1.1869731300
 C         -5.0286094258        3.6953863098       -0.0255341114
 C         -3.7923891174        3.3997588589        0.5294850689
 C         -3.0886228434        3.8685418535        1.6926251828
 C         -3.4020568259        4.7857976751        2.6850979811
 C         -2.5008093854        4.9827808804        3.7128566569
 C         -1.3087212305        4.2677668808        3.7651572761
 C         -0.9775949971        3.3455361622        2.7892637757
 C         -1.8675339008        3.1640605234        1.7442086324
 C         -1.4235439026       -0.1183986839        0.5903805035
 N         -2.7956124168       -0.3629647186        0.6676222436
 C         -3.6305758502        0.2102628658        1.6154177330
 C         -3.3026092050        0.7881739389        2.8302109452
 C         -4.3360613742        1.2833466080        3.6031123739
 C         -5.6613714449        1.1829675910        3.1896151960
 C         -5.9960477825        0.5534709296        2.0066609144
 C         -4.9728024848        0.0521114336        1.2147187903
 C         -4.9394342287       -0.6589066655       -0.0295265294
 C         -5.9071555776       -1.0745409348       -0.9326015596
 S         -7.6279802706       -0.8384558623       -0.8008777761
 C         -7.8777365299       -1.6560097152       -2.3298341488
 C         -9.1018296428       -1.8792086632       -2.9367738842
 C         -9.1246552953       -2.5502934396       -4.1442231677
 C         -7.9433693216       -2.9901590638       -4.7337985880
 C         -6.7244475967       -2.7634247395       -4.1287413637
 C         -6.6741668890       -2.0883123602       -2.9120065866
 C         -5.5304205307       -1.7437684618       -2.1079469625
 C         -4.1786049366       -1.9758100745       -2.3761525318
 C         -3.1986324486       -1.5561259135       -1.5030576743
 C         -3.5853348579       -0.9102734485       -0.3330651233
 H          2.3309376851       -0.9287037142       -1.9557652569
 H          4.4567780279       -1.4008789501       -3.1116773353
 H          6.1247300664       -2.8954957183       -2.1191839978
 H          5.6762630970       -4.0418204779        0.0249493122
 H          4.5639476577       -4.9601519143        2.3684698681
 H          3.1169399057       -5.3758846540        4.3316851841
 H          0.9692226668       -4.2220193044        4.5665035576
 H          0.1898523024       -2.6282367904        2.8684090583
 H          2.0344618856       -0.4875798890        3.2195846143
 H          3.7361081879       -1.4468880038        4.7205328707
 H          6.0997949868       -1.4955200551        4.0810130321
 H          6.8480468262       -0.5341436376        1.9247581997
 H         10.0732184021        0.6718609293       -2.3559689927
 H         10.2860924819        1.6213006697       -4.6310644515
 H          8.3174280694        2.5398876579       -5.7819998316
 H          6.1097102025        2.5298667013       -4.6902190915
 H          4.1365234114        2.3242237863       -3.3399213669
 H          2.2954752567        1.8830657373       -1.7678058470
 H         -2.6375975021        1.1693414360       -1.7939565578
 H         -4.8492935933        1.6868541613       -2.7441731104
 H         -6.3695458490        3.2489653055       -1.6245349516
 H         -5.6802805422        4.4157718537        0.4440502463
 H         -4.3353974092        5.3262494336        2.6521411566
 H         -2.7231105716        5.6951142761        4.4929625135
 H         -0.6259195538        4.4318950329        4.5850896740
 H         -0.0531541404        2.7912011374        2.8571797429
 H         -2.2789119143        0.8503608177        3.1690546072
 H         -4.1063646020        1.7561813987        4.5458804703
 H         -6.4397884102        1.5888157140        3.8175393024
 H         -7.0248400624        0.4457958772        1.6999037428
 H        -10.0123732441       -1.5363568029       -2.4703743799
 H        -10.0689060922       -2.7365326592       -4.6331793042
 H         -7.9837258569       -3.5159216705       -5.6760463661
 H         -5.8110617730       -3.1079834382       -4.5895054182
 H         -3.9014912605       -2.4846414122       -3.2861821526
 H         -2.1576628810       -1.7264842754       -1.7320181364
  112
  -187.424115277700       0.165477785494345      !
 N         -1.4035615212       -3.5653766045        0.4697412307
 C         -1.0084144621       -2.4905329735        0.4988191042
 C         -0.5219296543       -1.1611466581        0.5226689777
 C          0.8635633443       -0.9414558131        0.5265587271
 N          1.7515392347       -2.0175223929        0.5333118671
 C          2.8456151547       -2.1298478877       -0.3137064451
 C          3.0443533298       -1.5476071282       -1.5541126769
 C          4.2285894578       -1.8254918193       -2.2117058743
 C          5.1808162867       -2.6732539087       -1.6546040043
 C          4.9559061789       -3.3029850219       -0.4454060289
 C          3.7713607397       -3.0432294703        0.2289479265
 C          3.2011204038       -3.5177858403        1.4611004702
 C          3.6463662964       -4.3958636580        2.4382973941
 C          2.8467672805       -4.6178173901        3.5420851796
 C          1.6209433065       -3.9744355364        3.6801413792
 C          1.1588438847       -3.0911769954        2.7220809574
 C          1.9553455934       -2.8727866914        1.6113951427
 C          1.3496272478        0.3765038543        0.5575682854
 N          2.7267828578        0.5973974907        0.6825251399
 C          3.4657770450        0.0057921746        1.6982187503
 C          3.0301170617       -0.4659560558        2.9247755671
 C          3.9769525345       -0.9998839519        3.7784361038
 C          5.3222002327       -1.0507058688        3.4243714225
 C          5.7653912060       -0.5427827121        2.2189655401
 C          4.8303313586        0.0000939040        1.3485625447
 C          4.9127776507        0.6162440668        0.0571657913
 C          5.9431644549        0.8311707085       -0.8453936624
 S          7.6120980913        0.3772179641       -0.6444387433
 C          7.9906349167        0.9905205104       -2.2402228583
 C          9.2387735873        0.9664143933       -2.8384911860
 C          9.3687962535        1.4899675846       -4.1103489416
 C          8.2688471016        2.0290813291       -4.7705851251
 C          7.0260006640        2.0521964442       -4.1718244101
 C          6.8677466474        1.5298017374       -2.8908828565
 C          5.6782946345        1.4349144861       -2.0845725456
 C          4.3763748014        1.8341065486       -2.4017189246
 C          3.3324055373        1.6130886227       -1.5297394337
 C          3.6050171458        0.9912370656       -0.3156045332
 C          0.4432070451        1.4447448116        0.5452113425
 C          0.9445909281        2.7673553762        0.4877308018
 N          1.3604527797        3.8312776120        0.4023743811
 C         -0.9446588763        1.2266763320        0.5833764849
 N         -1.8150561769        2.3091943793        0.6793485560
 C         -2.9845116055        2.4666670209       -0.0519813130
 C         -3.3427470140        1.8871729079       -1.2575102762
 C         -4.5850194239        2.2021507782       -1.7767908609
 C         -5.4338205504        3.0942232675       -1.1294432182
 C         -5.0458363276        3.7305514139        0.0340997813
 C         -3.8056675452        3.4256308988        0.5751737678
 C         -3.0899249748        3.8821994211        1.7359028718
 C         -3.3923498869        4.7893064500        2.7411357703
 C         -2.4808961726        4.9740997257        3.7621191810
 C         -1.2891652536        4.2572599773        3.7951758812
 C         -0.9686542703        3.3453905541        2.8061191105
 C         -1.8691745432        3.1761097681        1.7680508149
 C         -1.4304444661       -0.0934925639        0.5794336760
 N         -2.8008854801       -0.3448738022        0.6579934494
 C         -3.6406682677        0.2045837966        1.6149739150
 C         -3.3176056055        0.7794335418        2.8325461448
 C         -4.3565919840        1.2458672173        3.6158458241
 C         -5.6821413014        1.1197181500        3.2101208697
 C         -6.0105938341        0.4944575471        2.0232089043
 C         -4.9818654286        0.0228930726        1.2200404732
 C         -4.9417943100       -0.6755409238       -0.0312206353
 C         -5.9052205774       -1.1020048586       -0.9341075389
 S         -7.6303096105       -0.9064154359       -0.7911109649
 C         -7.8696818808       -1.7097368140       -2.3293324809
 C         -9.0913022550       -1.9514116305       -2.9341590718
 C         -9.1047515946       -2.6047990029       -4.1514413199
 C         -7.9168110582       -3.0095243377       -4.7526353449
 C         -6.7005308571       -2.7653521198       -4.1491617790
 C         -6.6597465335       -2.1074492685       -2.9226943857
 C         -5.5200631313       -1.7491840621       -2.1190595243
 C         -4.1652231907       -1.9509153413       -2.3964031399
 C         -3.1900621071       -1.5225333194       -1.5224379843
 C         -3.5847325425       -0.8976231502       -0.3437132992
 H          2.3010211284       -0.9011558899       -1.9975187020
 H          4.4170163396       -1.3718827427       -3.1731630557
 H          6.1016893806       -2.8525653305       -2.1887091225
 H          5.6821398687       -3.9852155014       -0.0316429893
 H          4.6011051034       -4.8877512266        2.3344587447
 H          3.1745977285       -5.2982997592        4.3134023660
 H          1.0164723689       -4.1652500111        4.5540867497
 H          0.2085067435       -2.5936725654        2.8478596348
 H          1.9890885214       -0.4171040301        3.2098351644
 H          3.6635461691       -1.3860986202        4.7362718929
 H          6.0303201331       -1.4827611144        4.1148550056
 H          6.8111163781       -0.5592042089        1.9537753349
 H         10.0848976921        0.5462987558       -2.3170963956
 H         10.3332667170        1.4803089672       -4.5952205965
 H          8.3920389117        2.4338454986       -5.7640135961
 H          6.1766079351        2.4726602887       -4.6887176437
 H          4.1885147021        2.3106837799       -3.3513493982
 H          2.3277439300        1.9103479734       -1.7897700243
 H         -2.6801313566        1.2122896887       -1.7789589373
 H         -4.8994794141        1.7439619787       -2.7025003252
 H         -6.4023221299        3.3041384838       -1.5571690148
 H         -5.6901671622        4.4497750165        0.5155176438
 H         -4.3251634078        5.3313657213        2.7230983733
 H         -2.6947982133        5.6779460039        4.5521758696
 H         -0.5985533567        4.4113124080        4.6104942901
 H         -0.0443686228        2.7890955416        2.8591492083
 H         -2.2936266225        0.8600987940        3.1664376719
 H         -4.1311436040        1.7154422545        4.5613085031
 H         -6.4652107908        1.5020299684        3.8469544489
 H         -7.0387744609        0.3671971544        1.7219954964
 H        -10.0070471081       -1.6357128689       -2.4589820855
 H        -10.0468500858       -2.8044937590       -4.6391951761
 H         -7.9497065261       -3.5211204273       -5.7029240347
 H         -5.7818273403       -3.0828184526       -4.6187690355
 H         -3.8823829855       -2.4431761411       -3.3137579710
 H         -2.1467454254       -1.6696767539       -1.7572189721
  112
  -187.423649068100       0.101037967840165      !
 N         -1.3667506376       -3.5149266971        0.4162751438
 C         -0.9838896800       -2.4361233299        0.4593275663
 C         -0.5092427374       -1.1028741175        0.5002464152
 C          0.8739916948       -0.8717896328        0.5137145723
 N          1.7704135480       -1.9410856609        0.5120886054
 C          2.8560064213       -2.0481780825       -0.3459769766
 C          3.0406651631       -1.4624073952       -1.5869261694
 C          4.2172308984       -1.7386184254       -2.2587347859
 C          5.1767506485       -2.5862397805       -1.7137681207
 C          4.9659696250       -3.2187106376       -0.5035562089
 C          3.7879028598       -2.9628833590        0.1837822823
 C          3.2281486679       -3.4464296709        1.4172374107
 C          3.6785805982       -4.3360486340        2.3816065957
 C          2.8841330667       -4.5721770736        3.4861231632
 C          1.6587224564       -3.9310061000        3.6381132371
 C          1.1916515134       -3.0361474671        2.6933865322
 C          1.9826306586       -2.8043215349        1.5815314253
 C          1.3494184815        0.4494346124        0.5632762604
 N          2.7252278462        0.6758875099        0.7035531409
 C          3.4490256008        0.0723091930        1.7239620485
 C          2.9982136872       -0.3865885416        2.9498712153
 C          3.9307278888       -0.9335383862        3.8110108951
 C          5.2763450217       -1.0119986084        3.4635158500
 C          5.7343424381       -0.5225032298        2.2560291896
 C          4.8139337317        0.0335523117        1.3784024685
 C          4.9127988467        0.6356156848        0.0814171197
 C          5.9447491647        0.7976762676       -0.8301687862
 S          7.5918269421        0.2672391005       -0.6381550269
 C          7.9770795454        0.8179981131       -2.2548616096
 C          9.2102320906        0.7033086902       -2.8733804392
 C          9.3470202855        1.1825763093       -4.1618640564
 C          8.2691027685        1.7695272751       -4.8176612085
 C          7.0411922666        1.8830037906       -4.1986905115
 C          6.8756668787        1.4041628850       -2.9017233852
 C          5.6943866980        1.3894029049       -2.0781458386
 C          4.4080873527        1.8398689913       -2.3907283449
 C          3.3608667489        1.6664334666       -1.5117753776
 C          3.6157536949        1.0430384584       -0.2946202831
 C          0.4344709881        1.5100732297        0.5598931048
 C          0.9228440866        2.8379581383        0.5138613534
 N          1.3315757572        3.9053134418        0.4362692498
 C         -0.9519282011        1.2799619254        0.5931392839
 N         -1.8306874453        2.3537607093        0.7116298558
 C         -3.0101404073        2.5088918742       -0.0044607527
 C         -3.3671510411        1.9580898631       -1.2237187771
 C         -4.6188379216        2.2655419000       -1.7246234794
 C         -5.4792360253        3.1214947798       -1.0446431207
 C         -5.0953459385        3.7280601127        0.1360422094
 C         -3.8454686369        3.4307823315        0.6584684297
 C         -3.1306319521        3.8641611971        1.8286932561
 C         -3.4474667401        4.7258471480        2.8688089149
 C         -2.5330617502        4.8952771774        3.8899179702
 C         -1.3228350730        4.2093792961        3.8869675178
 C         -0.9882736384        3.3417597175        2.8632272270
 C         -1.8941786544        3.1852613600        1.8279221634
 C         -1.4267228292       -0.0437406777        0.5680694299
 N         -2.7948591416       -0.3102674534        0.6361178040
 C         -3.6452294536        0.2039493139        1.6029458635
 C         -3.3344970326        0.7608719522        2.8319821290
 C         -4.3829412482        1.1950825767        3.6211701222
 C         -5.7053198450        1.0541009318        3.2100564800
 C         -6.0207042146        0.4432485875        2.0121656867
 C         -4.9824398951        0.0036735243        1.2031879235
 C         -4.9280953771       -0.6725493942       -0.0595891070
 C         -5.8828102797       -1.1121828496       -0.9654244289
 S         -7.6122781384       -0.9739441283       -0.8095289526
 C         -7.8356638867       -1.7681580874       -2.3547979796
 C         -9.0531046071       -2.0469858253       -2.9519753203
 C         -9.0537518127       -2.6849805704       -4.1774674239
 C         -7.8572238057       -3.0369569339       -4.7946137279
 C         -6.6452470844       -2.7576880938       -4.1976301436
 C         -6.6173335722       -2.1160105742       -2.9622540538
 C         -5.4845619715       -1.7322376530       -2.1605457158
 C         -4.1256677329       -1.8941286263       -2.4444062615
 C         -3.1593913832       -1.4561117500       -1.5653158536
 C         -3.5667594756       -0.8596251108       -0.3762297750
 H          2.2918868707       -0.8153237126       -2.0201587049
 H          4.3938996432       -1.2846325176       -3.2222048967
 H          6.0918036820       -2.7633339170       -2.2586373459
 H          5.6976070593       -3.9008270438       -0.0992259170
 H          4.6324949960       -4.8271033907        2.2665718187
 H          3.2155085479       -5.2626695653        4.2469746697
 H          1.0585051578       -4.1335832058        4.5123391874
 H          0.2411000503       -2.5414105846        2.8285744268
 H          1.9563947045       -0.3180555820        3.2281557816
 H          3.6059416246       -1.3084671859        4.7695361108
 H          5.9730052096       -1.4527399106        4.1601285052
 H          6.7803836669       -0.5631551291        1.9947013365
 H         10.0390924383        0.2463258048       -2.3552539415
 H         10.2991241081        1.0993209018       -4.6638272940
 H          8.3971249011        2.1379704065       -5.8245225491
 H          6.2083752701        2.3383774769       -4.7130363559
 H          4.2333094977        2.3134319114       -3.3443894368
 H          2.3661913162        1.9974428294       -1.7695412235
 H         -2.6965893857        1.3104167311       -1.7690442628
 H         -4.9318438549        1.8298410000       -2.6616103952
 H         -6.4544977928        3.3263413054       -1.4592395481
 H         -5.7501328755        4.4183818254        0.6448351015
 H         -4.3938859105        5.2440522083        2.8774219975
 H         -2.7586776641        5.5627559638        4.7078228233
 H         -0.6290077692        4.3515738875        4.7017610623
 H         -0.0498043497        2.8077107759        2.8891633944
 H         -2.3127806812        0.8529349380        3.1698173960
 H         -4.1673665846        1.6511239277        4.5754949348
 H         -6.4960416870        1.4127266215        3.8512411180
 H         -7.0459256366        0.3030883433        1.7065097692
 H         -9.9754387751       -1.7699635411       -2.4653844413
 H         -9.9923295240       -2.9125587655       -4.6598011726
 H         -7.8799551559       -3.5364451773       -5.7516256829
 H         -5.7199751715       -3.0362977072       -4.6788736152
 H         -3.8327964324       -2.3652969779       -3.3696614809
 H         -2.1132068541       -1.5756462141       -1.8031943727
