  73
  -118.893917030900       0.245267402991346      !
 O          6.3774503162       -3.0776969279        0.4918686897
 C          5.9660830215       -1.9660414416        0.0866426078
 C          6.8766233953       -0.9436122196       -0.4262971133
 C          8.2553042478       -1.1787429869       -0.4779359990
 C          9.1139239244       -0.2153404201       -0.9673129843
 C          8.6177165243        1.0012901658       -1.4108667397
 C          7.2561171504        1.2548370049       -1.3653275924
 C          6.3830386020        0.2913456903       -0.8747358152
 O          5.0636914223        0.6105406967       -0.8537073275
 C          4.1744108085       -0.3138828749       -0.3845465729
 C          2.8464825051        0.0458592024       -0.3864077767
 C          1.8445154093       -0.8431926384        0.0533377316
 C          0.4521543583       -0.4634357154        0.0583948949
 C          0.0579590055        0.8850381517        0.1241234364
 C         -1.2791479551        1.2436388922        0.1463421729
 N         -1.6304803530        2.5970427236        0.2606080287
 C         -1.1499407824        3.4671508117        1.2162070322
 C         -0.2632795772        3.2317366838        2.2591467545
 C          0.0402454157        4.2888094856        3.0967840240
 C         -0.5291018015        5.5465725675        2.9150235884
 C         -1.4327699673        5.7801806188        1.8931630237
 C         -1.7508855825        4.7360789674        1.0387332023
 C         -2.6369723277        4.6121496841       -0.0885525643
 C         -3.4753139544        5.4980121236       -0.7471193395
 C         -4.1896408736        5.0441325898       -1.8420971876
 C         -4.0605007056        3.7320436473       -2.2897991435
 C         -3.2299245414        2.8320377873       -1.6492029919
 C         -2.5312524811        3.2728327281       -0.5335523682
 C         -2.2831596049        0.2772446961        0.0888129533
 C         -1.9049611611       -1.0634557905        0.0181998710
 N         -2.8912717600       -2.0598295303       -0.0164054808
 C         -2.9401920353       -3.1572970086        0.8162507561
 C         -2.0954634332       -3.5106025283        1.8606047943
 C         -2.3839472808       -4.6685633589        2.5582901759
 C         -3.4889434598       -5.4530872414        2.2376260954
 C         -4.3492012489       -5.0915518502        1.2155201244
 C         -4.0798580578       -3.9345921708        0.5011147175
 C         -4.7447757773       -3.2593569788       -0.5822150287
 C         -5.8843826643       -3.5322091156       -1.3225900721
 C         -6.2389157296       -2.6609375121       -2.3377327195
 C         -5.4625316887       -1.5420224601       -2.6273667070
 C         -4.3219070339       -1.2511152999       -1.9031097131
 C         -3.9755763974       -2.1055389360       -0.8653208574
 C         -0.5694424813       -1.4276441758       -0.0003745543
 C          2.2616600911       -2.1126872033        0.5024465201
 C          3.5793852852       -2.4721136951        0.5207520934
 C          4.5863797044       -1.5850102890        0.0762790034
 H          8.6183958430       -2.1322774143       -0.1285922125
 H         10.1741152906       -0.4149816570       -1.0053412760
 H          9.2873991378        1.7560135670       -1.7932742847
 H          6.8474636327        2.1950084311       -1.7011250683
 H          2.5943143015        1.0177284014       -0.7785810253
 H          0.8036094651        1.6618586408        0.1642179641
 H          0.1674928548        2.2550492750        2.4176170024
 H          0.7304819884        4.1333351394        3.9120869224
 H         -0.2664362273        6.3471029582        3.5897291934
 H         -1.8843753668        6.7518152886        1.7638920142
 H         -3.5630875692        6.5206696709       -0.4137045980
 H         -4.8500081796        5.7180279814       -2.3663381168
 H         -4.6172354652        3.4116240671       -3.1575095468
 H         -3.1161093858        1.8235070986       -2.0144710944
 H         -3.3226128494        0.5557007995        0.1506413198
 H         -1.2494564941       -2.8955714641        2.1267146809
 H         -1.7409934321       -4.9680310844        3.3721506421
 H         -3.6797339110       -6.3518666505        2.8040861602
 H         -5.2135215583       -5.6932512454        0.9797465145
 H         -6.4774496285       -4.4091111494       -1.1128589367
 H         -7.1243709512       -2.8547791350       -2.9237698951
 H         -5.7546786268       -0.8903011922       -3.4368766552
 H         -3.7116607021       -0.3957450650       -2.1466467402
 H         -0.3194041310       -2.4698897375       -0.1140030396
 H          1.5315119088       -2.8114948566        0.8814117374
 H          3.8928021182       -3.4388681712        0.8817756132
  73
  -118.893861945400       0.231379186377253      !
 O          6.8197752064        0.8391011988       -1.7804103555
 C          6.1443047312       -0.0854941023       -1.2726881003
 C          6.7425085228       -1.3662460490       -0.8988883720
 C          8.1046628579       -1.6057028371       -1.1125424859
 C          8.6689613801       -2.8146469711       -0.7588980977
 C          7.8881925160       -3.8089548144       -0.1890693674
 C          6.5369599827       -3.5922741122        0.0290616103
 C          5.9590170696       -2.3787557147       -0.3237044709
 O          4.6294633931       -2.2391953499       -0.0875793062
 C          4.0241553323       -1.0637174082       -0.4305097576
 C          2.6750150924       -0.9653924726       -0.1816279945
 C          1.9560086752        0.2110742846       -0.4789591818
 C          0.5403100309        0.3084920534       -0.2186872806
 C         -0.0915335894        1.5536585094       -0.0523364249
 C         -1.4521090843        1.6440432818        0.1861716319
 N         -2.0432936337        2.9075025888        0.3311619342
 C         -2.8788832848        3.3034172053        1.3528111842
 C         -3.2920809068        2.6037987269        2.4793081225
 C         -4.1252685286        3.2527844020        3.3714043360
 C         -4.5326719414        4.5674077170        3.1602134477
 C         -4.1030539255        5.2785463505        2.0533991654
 C         -3.2677593803        4.6484984124        1.1443161130
 C         -2.6271755388        5.0731669690       -0.0725217431
 C         -2.6333762780        6.2573588663       -0.7931288150
 C         -1.9032254893        6.3212079803       -1.9670806800
 C         -1.1897743530        5.2186287005       -2.4302915797
 C         -1.1702877735        4.0268225550       -1.7301679065
 C         -1.8788099613        3.9656926549       -0.5369785665
 C         -2.2385857759        0.4972585099        0.2959795161
 C         -1.6231614842       -0.7448284566        0.1412284798
 N         -2.3900387361       -1.9152212223        0.2357107827
 C         -2.0683977465       -3.0203552073        0.9947639560
 C         -0.9948418429       -3.2206319132        1.8531818376
 C         -0.9214638885       -4.4283732553        2.5217989716
 C         -1.8939688691       -5.4110541951        2.3551928423
 C         -2.9803592177       -5.2061973048        1.5227048270
 C         -3.0739342078       -4.0037943209        0.8393056682
 C         -4.0442785808       -3.4524430965       -0.0693509982
 C         -5.2247897597       -3.9345389014       -0.6125996593
 C         -5.9225657989       -3.1311036853       -1.4973932612
 C         -5.4459450795       -1.8719329062       -1.8524156613
 C         -4.2707511300       -1.3703884683       -1.3246484424
 C         -3.5800296301       -2.1606275973       -0.4148827745
 C         -0.2674088935       -0.8389106778       -0.1222172959
 C          2.6797062420        1.2800327527       -1.0466637040
 C          4.0176885927        1.1871338115       -1.3044315704
 C          4.7412810687        0.0096168485       -1.0064343032
 H          8.6923695722       -0.8181218391       -1.5566465112
 H          9.7225710001       -2.9807842544       -0.9254101213
 H          8.3271292071       -4.7550602160        0.0875483589
 H          5.9091164664       -4.3522690789        0.4670416390
 H          2.1945991757       -1.8089489851        0.2866602026
 H          0.4925006479        2.4592548070       -0.0600165783
 H         -2.9633177930        1.5921714175        2.6616121247
 H         -4.4630356662        2.7296748767        4.2532961707
 H         -5.1856029323        5.0394208361        3.8785200700
 H         -4.4061296404        6.3030379267        1.9008253629
 H         -3.1995814552        7.1079276206       -0.4457711248
 H         -1.8920490275        7.2354584927       -2.5407276831
 H         -0.6429428712        5.2939553070       -3.3580488334
 H         -0.6320332312        3.1698311069       -2.1052283758
 H         -3.2952959325        0.5695356542        0.4938078466
 H         -0.2487385961       -2.4554583931        2.0034950549
 H         -0.0941258962       -4.6110461208        3.1907824288
 H         -1.8006568412       -6.3422446796        2.8930631765
 H         -3.7416128243       -5.9625895249        1.4085464729
 H         -5.5865925107       -4.9175846695       -0.3528518747
 H         -6.8450617892       -3.4874259299       -1.9298464719
 H         -6.0026992391       -1.2756321000       -2.5593817762
 H         -3.8968782299       -0.4030153508       -1.6231206463
 H          0.1577973635       -1.8119370113       -0.3048170471
 H          2.1644562079        2.1868877910       -1.3238967564
 H          4.5612780047        2.0041788718       -1.7519452347
  73
  -118.893643333600       0.183593483593509      !
 O          6.8837815726        0.8839687692       -1.5341696171
 C          6.1867158678       -0.0410987295       -1.0569413615
 C          6.7783353855       -1.2918013208       -0.5849248254
 C          8.1616459250       -1.4941595712       -0.6498936294
 C          8.7206881322       -2.6726388288       -0.1987176265
 C          7.9137212234       -3.6737231134        0.3203788822
 C          6.5412567645       -3.4939802204        0.3906615557
 C          5.9686183221       -2.3104447182       -0.0588624187
 O          4.6185118936       -2.2041637935        0.0387199862
 C          4.0224062718       -1.0466558499       -0.3747620623
 C          2.6564178018       -0.9664656030       -0.2314161582
 C          1.9488199953        0.1989746331       -0.5899522121
 C          0.5233299876        0.2944238681       -0.3839241602
 C         -0.1042107001        1.5367876047       -0.1883138686
 C         -1.4626915972        1.6250209020        0.0656789611
 N         -2.0344427193        2.8800182535        0.3198090747
 C         -1.5504972049        3.8045367870        1.2220396311
 C         -0.4577085992        3.7192027467        2.0753579232
 C         -0.1984857591        4.7981973247        2.8998219696
 C         -1.0090148213        5.9304058264        2.8914259841
 C         -2.1160780818        6.0090470249        2.0647237446
 C         -2.3944154201        4.9403918949        1.2268540929
 C         -3.4390202153        4.6748207639        0.2733193862
 C         -4.5339142586        5.4000884986       -0.1698655355
 C         -5.3472472784        4.8439421701       -1.1416076009
 C         -5.0665676533        3.5915353751       -1.6813334664
 C         -3.9795068934        2.8517856488       -1.2553809889
 C         -3.1760246198        3.3903495738       -0.2596471510
 C         -2.2593054775        0.4807761573        0.1116636765
 C         -1.6519577067       -0.7567257089       -0.1023966398
 N         -2.4239935336       -1.9257789708       -0.0471299798
 C         -3.6161970757       -2.1487878075       -0.7022324941
 C         -4.3024562196       -1.3343789024       -1.5926120535
 C         -5.4802313963       -1.8141633113       -2.1338612202
 C         -5.9637042283       -3.0791731316       -1.8107106435
 C         -5.2699666901       -3.9082662786       -0.9467612524
 C         -4.0877683806       -3.4460788698       -0.3898770816
 C         -3.1210626765       -4.0249014127        0.5054541009
 C         -3.0324795031       -5.2462261793        1.1550598726
 C         -1.9484800428       -5.4774393110        1.9837178072
 C         -0.9740932546       -4.5022238959        2.1804009295
 C         -1.0424572998       -3.2763863147        1.5450694917
 C         -2.1120987167       -3.0499103843        0.6884296437
 C         -0.2919338872       -0.8501840097       -0.3473493766
 C          2.6941822510        1.2671057116       -1.1279957762
 C          4.0480402120        1.1879017177       -1.2913894911
 C          4.7643935281        0.0292846380       -0.9126912991
 H          8.7694922685       -0.7015795845       -1.0566526952
 H          9.7903183995       -2.8092522939       -0.2488822601
 H          8.3484786889       -4.5958849978        0.6736981896
 H          5.8936768276       -4.2597977490        0.7880530092
 H          2.1511361325       -1.8097355547        0.2111247250
 H          0.4766596383        2.4436834323       -0.2235512712
 H          0.1640204615        2.8376759055        2.1030218061
 H          0.6491940701        4.7590040417        3.5670516592
 H         -0.7725701254        6.7534983609        3.5484132892
 H         -2.7523873632        6.8806740973        2.0717046912
 H         -4.7419783613        6.3793803202        0.2331226901
 H         -6.2069524013        5.3913041320       -1.4970064189
 H         -5.7084126969        3.1912016621       -2.4515855492
 H         -3.7542022787        1.8930469792       -1.6950574973
 H         -3.3060090984        0.5464328313        0.3601946654
 H         -3.9207622375       -0.3636701261       -1.8666818410
 H         -6.0338589397       -1.1965155706       -2.8248895081
 H         -6.8886547985       -3.4191289246       -2.2510319203
 H         -5.6366435495       -4.8959697895       -0.7129710256
 H         -3.7955106548       -5.9970251911        1.0180473542
 H         -1.8592664519       -6.4233524617        2.4959150028
 H         -0.1494830361       -4.7052644732        2.8468255093
 H         -0.2963014134       -2.5166679649        1.7201611574
 H          0.1326285685       -1.8170059986       -0.5630855573
 H          2.1842014044        2.1586267361       -1.4599211533
 H          4.6111224428        2.0027186118       -1.7182642635
  73
  -118.893450020500       0.149629323635205      !
 O          7.0490527893        0.7260910726        0.2815435686
 C          6.2657136714       -0.1335698449       -0.1841467004
 C          6.7488880592       -1.3373862891       -0.8581670365
 C          8.1213382127       -1.5759725959       -0.9930898306
 C          8.5770514856       -2.7130780156       -1.6289897039
 C          7.6764695096       -3.6351749524       -2.1404509742
 C          6.3133739868       -3.4178665075       -2.0163649692
 C          5.8442186832       -2.2766103468       -1.3773802079
 O          4.4973666242       -2.1325902083       -1.2864694030
 C          3.9990126482       -1.0291154128       -0.6545672108
 C          2.6292062840       -0.9263189463       -0.5750621396
 C          2.0101173068        0.1810479842        0.0398512811
 C          0.5720627770        0.2831068627        0.1263854749
 C         -0.0667116129        1.5274221480        0.2660030522
 C         -1.4454102308        1.6232307079        0.3479587250
 N         -2.0411739303        2.8868836306        0.4781001066
 C         -2.9689063706        3.2489556117        1.4306136371
 C         -3.5073073994        2.5014609278        2.4700329209
 C         -4.4123307849        3.1235737024        3.3097880775
 C         -4.7700487632        4.4574669590        3.1320709865
 C         -4.2188845581        5.2142634789        2.1129416112
 C         -3.3097512816        4.6118998821        1.2574966996
 C         -2.5413079398        5.0837261167        0.1359615511
 C         -2.4520662067        6.3040885754       -0.5152943260
 C         -1.6035457405        6.4126865984       -1.6031998847
 C         -0.8652187732        5.3198460721       -2.0502312501
 C         -0.9391482192        4.0924317816       -1.4185452779
 C         -1.7689680010        3.9847861944       -0.3097172644
 C         -2.2466766985        0.4825082134        0.3098670799
 C         -1.6253921826       -0.7588624701        0.1755673846
 N         -2.4061972293       -1.9237559635        0.1321137935
 C         -2.1929035185       -3.0608640964        0.8820505862
 C         -1.2431444453       -3.3060020169        1.8657409175
 C         -1.2653749627       -4.5399021643        2.4887974025
 C         -2.2119144061       -5.5054154705        2.1556662388
 C         -3.1771351381       -5.2569724254        1.1955497214
 C         -3.1736110712       -4.0275122128        0.5553427849
 C         -4.0123684336       -3.4316460798       -0.4507709149
 C         -5.1119582831       -3.8807941751       -1.1651308547
 C         -5.6823281824       -3.0365452217       -2.1016698329
 C         -5.1579965125       -1.7685642413       -2.3384708806
 C         -4.0615829650       -1.2992815277       -1.6392992420
 C         -3.5007381126       -2.1318146007       -0.6793073156
 C         -0.2479458596       -0.8578086474        0.0768212337
 C          2.8544874777        1.1749171522        0.5743083693
 C          4.2155529486        1.0755614106        0.5076539062
 C          4.8396588381       -0.0319924551       -0.1102104158
 H          8.8033394942       -0.8455288927       -0.5876586240
 H          9.6390389378       -2.8796418338       -1.7279837206
 H          8.0305775855       -4.5251888411       -2.6371342391
 H          5.5939309127       -4.1221462641       -2.4037381821
 H          2.0453534745       -1.7050691581       -1.0381913025
 H          0.5174728828        2.4318280360        0.3078089692
 H         -3.2189570001        1.4735396019        2.6279616309
 H         -4.8471528116        2.5634399546        4.1238055532
 H         -5.4813704117        4.9076819014        3.8078004908
 H         -4.4845934141        6.2527451263        1.9876183347
 H         -3.0358118109        7.1480514760       -0.1811293486
 H         -1.5172263531        7.3552850225       -2.1218047451
 H         -0.2239887014        5.4310478917       -2.9112771169
 H         -0.3768765754        3.2457234592       -1.7812963164
 H         -3.3191646075        0.5585684861        0.3819545920
 H         -0.5172617922       -2.5569298130        2.1425841582
 H         -0.5344590532       -4.7571580024        3.2529308547
 H         -2.1953363083       -6.4578648804        2.6632629250
 H         -3.9201484820       -6.0005138254        0.9509903858
 H         -5.5088668558       -4.8700175459       -0.9959611741
 H         -6.5405039862       -3.3668299202       -2.6669376014
 H         -5.6140208970       -1.1391770053       -3.0877099735
 H         -3.6481848746       -0.3238306800       -1.8449536706
 H          0.1942030331       -1.8337507289       -0.0355991274
 H          2.4251027474        2.0214687871        1.0877991317
 H          4.8544923963        1.8333341785        0.9326852127
  73
  -118.893344327400       0.133796122404494      !
 O          7.0480251288        0.7606238634        0.1878136589
 C          6.2617959085       -0.1135646886       -0.2442172132
 C          6.7388244241       -1.3124119878       -0.9317309502
 C          8.1078825301       -1.5191960907       -1.1353633443
 C          8.5580321873       -2.6509642436       -1.7845455401
 C          7.6551406443       -3.6005518589       -2.2384472397
 C          6.2952945896       -3.4146056028       -2.0464669260
 C          5.8314432361       -2.2766255316       -1.3976759528
 O          4.4874807682       -2.1592947484       -1.2466023564
 C          3.9938076974       -1.0473436606       -0.6257343345
 C          2.6253349806       -0.9534660409       -0.5182691727
 C          2.0097918101        0.1632217154        0.0840585633
 C          0.5718888365        0.2694201942        0.1637004535
 C         -0.0656128685        1.5162247778        0.2900513455
 C         -1.4456339554        1.6206601248        0.3251817584
 N         -2.0410117306        2.8822404241        0.4706092024
 C         -3.0108535099        3.2047440569        1.3965542291
 C         -3.6019039580        2.4124479082        2.3724733119
 C         -4.5437983036        2.9991944945        3.1969336073
 C         -4.8861336612        4.3425846777        3.0679441412
 C         -4.2794710278        5.1446472985        2.1172725430
 C         -3.3327148703        4.5778400614        1.2783919895
 C         -2.5039983414        5.1001854462        0.2243238633
 C         -2.3683190971        6.3549485758       -0.3487294603
 C         -1.4614407876        6.5156324515       -1.3816560418
 C         -0.7127477763        5.4402296707       -1.8528993025
 C         -0.8329395900        4.1790925320       -1.2992260828
 C         -1.7197832819        4.0180581517       -0.2419887631
 C         -2.2517291368        0.4846729922        0.2415731135
 C         -1.6309288671       -0.7599805666        0.1538646138
 N         -2.4137861312       -1.9258203703        0.1138027761
 C         -2.2723154497       -3.0043471919        0.9587609546
 C         -1.4172967487       -3.1677095629        2.0411029238
 C         -1.5038511769       -4.3480313119        2.7553155952
 C         -2.4192805083       -5.3395113340        2.4106503145
 C         -3.2862770328       -5.1734054900        1.3444670524
 C         -3.2190560128       -3.9978030428        0.6129360032
 C         -3.9566173552       -3.4809848657       -0.5098632886
 C         -4.9796974870       -3.9863559153       -1.2966237480
 C         -5.4571475477       -3.2111640097       -2.3391713667
 C         -4.9203099350       -1.9539675826       -2.6051290148
 C         -3.8992336162       -1.4286453542       -1.8353068703
 C         -3.4272094496       -2.1954762077       -0.7780485385
 C         -0.2521585431       -0.8690586165        0.1123157562
 C          2.8584906312        1.1686715758        0.5900259201
 C          4.2184235875        1.0778958861        0.4965258033
 C          4.8378928832       -0.0316714535       -0.1225346063
 H          8.7915180451       -0.7679396830       -0.7730252933
 H          9.6172156468       -2.7924674862       -1.9378566535
 H          8.0050365686       -4.4875780267       -2.7434151642
 H          5.5746377741       -4.1402203830       -2.3896823319
 H          2.0386265222       -1.7461000643       -0.9532524686
 H          0.5217826458        2.4164617544        0.3611690677
 H         -3.3258621460        1.3766035367        2.4965435635
 H         -5.0194936415        2.4028360701        3.9608349939
 H         -5.6276929769        4.7642143998        3.7292955447
 H         -4.5316942840        6.1904682889        2.0317719396
 H         -2.9597499499        7.1857900881        0.0043637547
 H         -1.3364156365        7.4860473996       -1.8374393695
 H         -0.0246641836        5.5928066181       -2.6705812702
 H         -0.2616475024        3.3480226278       -1.6833022420
 H         -3.3263692609        0.5654925955        0.2507557123
 H         -0.7154806796       -2.3961868364        2.3193869707
 H         -0.8502462483       -4.5019797545        3.6006056933
 H         -2.4563643244       -6.2478065880        2.9926677025
 H         -4.0041111073       -5.9380736482        1.0899149442
 H         -5.3883919658       -4.9661661605       -1.1021104840
 H         -6.2526375660       -3.5879640580       -2.9640916330
 H         -5.3061802613       -1.3790388025       -3.4333901645
 H         -3.4747995382       -0.4610385703       -2.0559646655
 H          0.1862659249       -1.8511045686        0.0446282336
 H          2.4345942545        2.0199371953        1.1002202222
 H          4.8604468689        1.8466820359        0.8965237472
  73
  -118.892526887800       5.633448099819196E-002 !
 O          7.0205390579        0.6303007207        0.6198389434
 C          6.2522990872       -0.1385055275       -0.0054661519
 C          6.7450201960       -1.0813687957       -1.0052973187
 C          8.1052304608       -1.1247178054       -1.3338861988
 C          8.5677681829       -2.0042302661       -2.2918165831
 C          7.6887874938       -2.8632144802       -2.9336090281
 C          6.3385696335       -2.8388970799       -2.6189143372
 C          5.8611353829       -1.9525338848       -1.6619772319
 O          4.5261169937       -1.9765007427       -1.4107855818
 C          4.0093965643       -1.0584953442       -0.5414155949
 C          2.6396285213       -1.0361070042       -0.3997551570
 C          2.0108774219       -0.0761204254        0.4152266560
 C          0.5697873842        0.0452832209        0.4492566107
 C         -0.0207401301        1.3101703223        0.5903876385
 C         -1.3933697075        1.4744327761        0.5232195927
 N         -1.9291981363        2.7684146594        0.5898817163
 C         -2.9538655710        3.1925103365        1.4074920470
 C         -3.6839209337        2.4832547468        2.3524167090
 C         -4.6541631059        3.1659082983        3.0623224944
 C         -4.8906420266        4.5216847754        2.8504868839
 C         -4.1502081241        5.2394061855        1.9276071955
 C         -3.1731714809        4.5760667280        1.2021833741
 C         -2.2259186851        4.9950747082        0.2030866172
 C         -1.9618001352        6.2077233389       -0.4149191583
 C         -0.9657110979        6.2584080775       -1.3742553576
 C         -0.2535768034        5.1161344797       -1.7309110377
 C         -0.5003678218        3.8958625887       -1.1303125171
 C         -1.4776904750        3.8457102938       -0.1441506446
 C         -2.2329159489        0.3719930846        0.3671441825
 C         -1.6577212248       -0.8945615461        0.2662343549
 N         -2.4946328245       -2.0134272653        0.1234988277
 C         -2.4795623907       -3.1363525358        0.9219434779
 C         -1.6801728224       -3.4273319875        2.0196439324
 C         -1.8990875721       -4.6250353032        2.6746526352
 C         -2.8898987484       -5.5105324011        2.2579147755
 C         -3.7004964553       -5.2176663028        1.1750394875
 C         -3.4998345874       -4.0228463068        0.5014855617
 C         -4.1495995181       -3.3932365747       -0.6176876353
 C         -5.1894470581       -3.7671077573       -1.4546608112
 C         -5.5598252896       -2.9075964964       -2.4742012113
 C         -4.8987867568       -1.6976303039       -2.6701397992
 C         -3.8593226944       -1.3030986072       -1.8487595443
 C         -3.4975087655       -2.1519148477       -0.8106488559
 C         -0.2822463348       -1.0586426973        0.2883671484
 C          2.8334619999        0.8091642186        1.1366833659
 C          4.1954566048        0.7660548538        1.0335635502
 C          4.8307864266       -0.1522430722        0.1671854695
 H          8.7702092536       -0.4467529323       -0.8228228636
 H          9.6181545322       -2.0167313362       -2.5408474490
 H          8.0485602241       -3.5519878394       -3.6821310247
 H          5.6365085186       -3.4982997320       -3.1045940553
 H          2.0576526055       -1.7309903518       -0.9841303128
 H          0.6038118356        2.1780182963        0.7256011502
 H         -3.4926293208        1.4374515269        2.5381772746
 H         -5.2375199297        2.6365769387        3.8005210456
 H         -5.6574725605        5.0197342123        3.4240350722
 H         -4.3236887477        6.2938091262        1.7763850571
 H         -2.5244529061        7.0907091797       -0.1533876037
 H         -0.7412165125        7.1938838936       -1.8636729649
 H          0.5061377594        5.1824444363       -2.4949601513
 H          0.0437730640        3.0121723060       -1.4261761734
 H         -3.3026485838        0.4941581337        0.3167600843
 H         -0.9203340935       -2.7382568401        2.3554915789
 H         -1.2912377183       -4.8766755121        3.5305486163
 H         -3.0306683745       -6.4358231844        2.7957006857
 H         -4.4766917667       -5.8996037652        0.8630697908
 H         -5.6938398435       -4.7109590199       -1.3149890465
 H         -6.3676306102       -3.1803662426       -3.1361572274
 H         -5.2010728862       -1.0554861596       -3.4836192094
 H         -3.3384945373       -0.3726852716       -2.0167612553
 H          0.1330216120       -2.0483565238        0.1835312079
 H          2.3828430166        1.5164797104        1.8169128454
 H          4.8240754694        1.4364445380        1.5977360896
