97
 energy: -148.205253695468 gnorm: 0.000190885247 xtb: 6.7.1 (edcfbbe)
C           -1.66406336917425        1.94256792589456       -2.65639471423479
C           -2.60785415856543        0.74731604314102       -2.60873270046304
C           -4.03675227492649        1.15434022602762       -2.25849604372047
C           -4.99703554267936       -0.03230620659720       -2.32265483814393
C           -6.44342053355517        0.34756039529417       -1.99594274350602
C           -6.69413416318417        0.57079686418117       -0.50323241373612
C           -6.72483205570706       -0.73921833419251        0.29792799746032
C           -5.93560480305874       -0.65101225263635        1.60592815297076
N           -4.51742632380407       -0.53120590930354        1.35502083089293
C           -3.72995243205464       -1.59758442121560        0.95580857734038
O           -4.16879205129140       -2.71875276120140        0.78782473909570
C           -2.37760442106770       -1.04483157894138        0.80114882136351
C           -1.09483111493885       -1.52930447856414        0.44292983206340
C           -0.62220441476256       -2.85097411296043        0.30087869324516
C           -1.45946997293683       -3.95050774442264        0.62260687688639
C           -0.98163544856684       -5.23188310271507        0.68580833079399
C            0.36128734349032       -5.50321803350048        0.42182203566044
C            1.19365826977134       -4.46668318079909        0.04952676948714
C            0.72686241299128       -3.16218215473418       -0.04951178543688
N            1.62447568074786       -2.19997181372358       -0.53120781657092
C            2.93519711435089       -2.10395792876688       -0.10366106959552
C            3.50636487283256       -2.58119945366716        1.06722242192710
C            4.85922622736693       -2.37065886111775        1.25401877867061
C            5.62656741402311       -1.70732729950045        0.29986028759665
C            5.05290353012340       -1.19850924819344       -0.85100995361177
C            3.69234961733631       -1.37573848847617       -1.04689432482060
C            2.78114690492968       -1.00101926032066       -2.09492328830494
C            2.92928442018210       -0.29331031276203       -3.27763212618009
C            1.82998960932052       -0.15070843066125       -4.10401366944167
C            0.60453129477133       -0.72274386973913       -3.77329889518265
C            0.43322629531900       -1.42980257643571       -2.59763383024845
C            1.52412886204551       -1.54676879382820       -1.75048599391019
S            0.01594966488915       -0.15034051204531        0.38331652497515
C           -1.22209340451703        1.02693779689780        0.85946355546916
C           -0.94932463275453        2.40850947452688        0.85577617883134
C           -2.00755668687577        3.35219262195492        0.94140769395392
C           -1.80646832195871        4.68785719359168        0.72282124584662
C           -0.53309454318266        5.17501919391234        0.42180078582251
C            0.53231684972849        4.29767580165817        0.39755755066653
C            0.35985408961642        2.94095655693620        0.64138036254986
N            1.51310592300384        2.15006746169839        0.70277188102911
C            1.99103565144919        1.51150908316541        1.83857366660003
C            1.33120068601275        1.20154959963283        3.01785640634561
C            2.04807560829421        0.55248660667776        4.00585385458837
C            3.39141425538627        0.23009396097335        3.83443331967815
C            4.06152441635774        0.56466842776787        2.67228701520133
C            3.36048667224220        1.21005997025035        1.66560602766917
C            3.73187882438545        1.71356153168380        0.37005779683229
C            4.92610571055827        1.76817232837007       -0.33114744825229
C            4.92474337026794        2.32922160261650       -1.59530993228337
C            3.75122386991134        2.81611592450554       -2.16557237185047
C            2.55523867265261        2.79740098816217       -1.47355246005879
C            2.56154209091545        2.26987930601533       -0.19013920538473
C           -2.44353708778652        0.33012904583025        1.03905079417906
C           -3.81178084876627        0.65697407865519        1.45316498830052
O           -4.31378799653192        1.69601625125454        1.83844348024042
H           -0.63893916723550        1.61205464987892       -2.81448961827852
H           -1.94144664407920        2.61449590396231       -3.46610461982119
H           -1.70733782556786        2.50050892963567       -1.72356953015427
H           -2.60472257811417        0.24524054188453       -3.57935084020125
H           -2.24728249411514        0.02950664746865       -1.86931535434591
H           -4.04465280181579        1.59331102503892       -1.25861747159206
H           -4.37216225143948        1.92477472952760       -2.95749946287373
H           -4.65390933998490       -0.81281513142720       -1.63973488657804
H           -4.96290072837618       -0.44983726792529       -3.33248548549750
H           -6.69549895840758        1.25993499456502       -2.54167968071723
H           -7.11195263642850       -0.44134826133536       -2.34918930773398
H           -7.64495216050003        1.09247534462537       -0.37882596802535
H           -5.92063056295245        1.22853750124225       -0.10818211237396
H           -7.75347463483064       -1.01248693571924        0.53692474831043
H           -6.30153429054884       -1.55396137539311       -0.29158326818833
H           -6.09649261009205       -1.55705696527073        2.19741277841703
H           -6.23441620920554        0.22615008647498        2.18445087607032
H           -2.49981170694159       -3.76801477270518        0.82565361531747
H           -1.65172967463371       -6.03725262032955        0.94491063075987
H            0.73946628372460       -6.51236195451043        0.46971826681841
H            2.22260057126207       -4.66552746220741       -0.21443905492848
H            2.91396874261360       -3.10229737661496        1.80376397792013
H            5.33196219494677       -2.73782311823319        2.15265973165166
H            6.68687475748356       -1.58658026818358        0.46746117881361
H            5.64786051036211       -0.68196610103198       -1.58796856888996
H            3.88504405863597        0.12994337298225       -3.54489496477666
H            1.92224749294730        0.40123583627465       -5.02745955014757
H           -0.22932171286606       -0.61506247523183       -4.45008539838766
H           -0.51761964848255       -1.87664560851431       -2.35073485400831
H           -2.99613723543819        3.00184280467116        1.17935169660801
H           -2.64177980668671        5.36862401438359        0.78232148122610
H           -0.37274537059266        6.22800427807166        0.25159519212811
H            1.53394106530030        4.66739867542593        0.23125770267818
H            0.29161536073728        1.45437101866549        3.16122999812716
H            1.55462802848596        0.29233280417502        4.93029824491459
H            3.91696544655970       -0.28018908865783        4.62761641620559
H            5.10771182931643        0.33293386989892        2.54710806986173
H            5.83485911561779        1.38604887913471        0.10708185383479
H            5.84644383379025        2.38702240765665       -2.15570326204268
H            3.77751468519925        3.22614269143346       -3.16409498208913
H            1.64728548645332        3.18090733317316       -1.91362228400178
