97
 energy: -148.272089017351 gnorm: 0.000029272477 xtb: 6.7.1 (edcfbbe)
C            9.05779248358751        1.31431177311473        1.41927469734182
C            8.10872546515258        0.83739931684845        0.32646119910703
C            7.69203492691440       -0.61605552819723        0.54138163722775
C            6.81359074921845       -1.17495838945234       -0.57916116382626
C            5.40564420260723       -0.58361719275504       -0.58055937609091
C            4.53541463753710       -1.08836774342713       -1.73387859263890
C            4.29681752498539       -2.59939448269202       -1.76126150839081
C            3.59032696283722       -3.13876993971011       -0.51503940761306
N            2.31428649454435       -2.49350425205730       -0.30283322582543
C            2.09160379129557       -1.56848179868758        0.70951415609401
O            2.90599898598421       -1.25880379660508        1.54645677350704
C            0.70982060226383       -1.11866321419573        0.50843273369533
C           -0.13561433253044       -0.20212586013672        1.06579788883434
C            0.06590366456264        0.67355024722194        2.20571856853827
C            0.73488385668799        0.20990920661526        3.33700028825217
C            0.87180723384568        1.01547840238751        4.45089485924271
C            0.34291959329467        2.29660266876088        4.45365781529650
C           -0.29659174025744        2.78424333538849        3.32847450761022
C           -0.43229919731402        1.98701487200422        2.19966061116995
N           -1.02904435319223        2.50452104983677        1.04152346125457
C           -2.30553050001749        3.02047199235752        0.93975153747047
C           -3.27570732973887        3.16566299406183        1.91904446334384
C           -4.48511234139740        3.71916342889539        1.54652839631155
C           -4.73152611327114        4.10914023129325        0.23257592153713
C           -3.78114070188457        3.93314848645927       -0.75240359870175
C           -2.55628822844590        3.38110097748657       -0.40301733128233
C           -1.36594738909002        3.06230113319431       -1.14196767731545
C           -1.00697836610680        3.17477685545562       -2.47874483467716
C            0.25577525898365        2.76842310573732       -2.86182620182713
C            1.16600672672966        2.27625980952088       -1.92884511084648
C            0.83526737694069        2.15792685273282       -0.59260337389772
C           -0.44462648903505        2.53382036487761       -0.21028429089657
S           -1.65223814493345       -0.21854929456353        0.20557277422887
C           -1.11542595748709       -1.44260219162421       -0.92321844224220
C           -1.97137783832787       -1.85452087281326       -2.01828403192289
C           -1.40415869106359       -2.29050210768158       -3.21810343095333
C           -2.19551337042591       -2.60541380191503       -4.30455080675429
C           -3.57413484792176       -2.49090350387331       -4.22048559342592
C           -4.15724516826765       -2.08570530993192       -3.03461012841524
C           -3.37253380581758       -1.77377179003781       -1.93148106478303
N           -4.00195251291246       -1.40825410912540       -0.73206809894197
C           -3.91560043563131       -2.09533591543246        0.46471928314986
C           -3.17194395556166       -3.22285647482811        0.77909686449022
C           -3.26276404802337       -3.71247939589809        2.06793695422158
C           -4.07478829777590       -3.10166686137917        3.02104328547292
C           -4.82897454925496       -1.98860051474939        2.70654140553560
C           -4.75519667300672       -1.47682756366375        1.41781970766500
C           -5.39261886609607       -0.37640818186482        0.74872177975958
C           -6.31764569539591        0.57998203443939        1.14512562265946
C           -6.74478033822645        1.50939571599651        0.21870274803655
C           -6.24563606088847        1.51000248983228       -1.08148292833336
C           -5.31684416973844        0.57603232138842       -1.49698777391714
C           -4.90916460595600       -0.37836207426948       -0.57823891832230
C            0.17396691705430       -1.79828469185787       -0.62229251526308
C            1.21779455184496       -2.70237132864430       -1.13136301771069
O            1.20700834844847       -3.48173509968599       -2.05437111948453
H            9.34499595061684        2.35030421112687        1.25366932486778
H            8.58101830599994        1.24200219373084        2.39445868479661
H            9.96021862047579        0.70650254933389        1.43459585194851
H            7.22608034558810        1.47868350848477        0.31833144247471
H            8.59901359701134        0.93137819333354       -0.64567309097898
H            8.59589237249144       -1.22678950173698        0.61468191164787
H            7.15792071939124       -0.70153442200881        1.49045446175826
H            6.74962925042224       -2.25740047751915       -0.45162031729727
H            7.29069519438989       -0.98157976595186       -1.54363880893148
H            4.92148577288443       -0.79540794804614        0.37372197802812
H            5.47340925086059        0.50225372037010       -0.67266241960690
H            5.00435857147233       -0.80583304769542       -2.68012752637371
H            3.56864433279597       -0.57792613989908       -1.68627272815396
H            3.68327519410587       -2.83979900100092       -2.63220845777799
H            5.24456336694201       -3.12716131711286       -1.86894321754981
H            4.18569917619006       -2.96417339058699        0.38287350484739
H            3.41658810428139       -4.21229842438901       -0.63481143168742
H            1.13708559886067       -0.79030431840727        3.33543096544758
H            1.38897515520533        0.64136739515648        5.32080774405107
H            0.44368809623268        2.92376128091945        5.32653634825191
H           -0.68159450170922        3.79291891620841        3.30625769809674
H           -3.09247999942230        2.85517241325185        2.93678309916361
H           -5.25619724142249        3.85253584356708        2.29046476167521
H           -5.68522283601614        4.54956484127425       -0.01584235786956
H           -3.97966600620675        4.21989805630689       -1.77398848102562
H           -1.70445968823390        3.57270197405154       -3.20024679084474
H            0.55132272007139        2.84098246339300       -3.89789031632719
H            2.15338892472256        1.98467870410432       -2.25582924737365
H            1.55168145271786        1.79009671415546        0.12717982695059
H           -0.33332342184395       -2.37757168774258       -3.29277264079906
H           -1.73389625388937       -2.93733657817322       -5.22157525418366
H           -4.19484737502250       -2.73122140557849       -5.07031080506931
H           -5.23140684653183       -2.01911878775144       -2.94334567993490
H           -2.54524418088404       -3.70399600701564        0.04241972102143
H           -2.69289683847870       -4.58819034059135        2.34117730879640
H           -4.11621446029133       -3.51298277300385        4.01863034170184
H           -5.46578381011209       -1.52334704742503        3.44365395000413
H           -6.69534020307235        0.58915438091477        2.15633516488649
H           -7.47373369289206        2.25301415782727        0.50371430224975
H           -6.59180668937071        2.25694344187742       -1.78000943413795
H           -4.92195826894506        0.58731403846918       -2.50187376380374
