97
 energy: -148.277108904348 gnorm: 0.000052556707 xtb: 6.7.1 (edcfbbe)
C           -4.63840892313867        2.14911820149500        2.77435512037268
C           -5.43346028111855        3.20164461498470        2.00978578773403
C           -4.54103478329785        4.17955855256644        1.24459034552317
C           -3.88326091857195        3.54343911071498        0.02208745613632
C           -2.88451857295674        4.49140323268360       -0.63816336973434
C           -2.24553519730120        3.91919621877830       -1.90609640004981
C           -1.60963888883101        2.54105368702570       -1.72778347233235
C           -0.55223455042943        2.51310034217172       -0.62526234528989
N           -0.02828662825486        1.17918429000523       -0.44148782544908
C            1.23117347066932        0.78897681052904       -0.87648899432970
O            1.97063522688254        1.46466020965835       -1.54737848644943
C            1.38824032768190       -0.58368411563754       -0.37661023440617
C            2.37435275544250       -1.52274365174851       -0.31407209152752
C            3.79939063479594       -1.40580392893344       -0.57488966439577
C            4.46465568960070       -2.43042316039546       -1.24459521441263
C            5.81436073143891       -2.34302173915699       -1.52176613452051
C            6.52954066572565       -1.23027865709813       -1.10868403193495
C            5.89578468039100       -0.22123481396376       -0.40866716209736
C            4.53428104279425       -0.28956037251598       -0.13055223979905
N            3.93436020563515        0.74191819666577        0.60101237306257
C            3.06474323848499        0.58205623609564        1.66223453024955
C            2.80955894888772       -0.54617979188895        2.42985656450843
C            1.86255387420355       -0.44633153655229        3.43044608738892
C            1.20179314407710        0.75286963851784        3.68741968174998
C            1.50642001460086        1.89628751486056        2.97647760429944
C            2.45369747008332        1.81941563163324        1.96372861154754
C            3.01750749165740        2.78127512907112        1.05821530600353
C            2.81228442572175        4.14137156341037        0.87017947967155
C            3.51648215190835        4.78308066387912       -0.12821646539869
C            4.40077314982934        4.08053224513109       -0.94271612869404
C            4.61468930164494        2.72549475527925       -0.77928715215070
C            3.92643564675207        2.07994033623484        0.23538637170241
S            1.71341803345040       -2.99958257098776        0.35418021374336
C            0.12355605610261       -2.29745100897221        0.58953593501471
C           -0.95244285584802       -3.12684895557708        1.09845808086144
C           -0.67408327860223       -4.03853306131131        2.11778805441486
C           -1.66040045674161       -4.84111254098720        2.65203977933680
C           -2.95162345379206       -4.76320955764923        2.15323298163456
C           -3.24101160862705       -3.89219712613755        1.12161953393747
C           -2.25980011112984       -3.06334708105637        0.58161351736317
N           -2.60480344908165       -2.21732947277123       -0.47521240676775
C           -3.68112604919155       -1.34356004056650       -0.47252948077058
C           -4.63804370295875       -1.11611771495248        0.50437360055236
C           -5.62205266251699       -0.18328228280776        0.23979591419804
C           -5.65175576429986        0.52541060827920       -0.95843853873179
C           -4.67789220817556        0.33454624859246       -1.91718458339007
C           -3.68355612414818       -0.60458216187952       -1.67545904739920
C           -2.54738180742095       -1.04913068449102       -2.43298708177093
C           -2.02793303371087       -0.69308979736461       -3.67057190233191
C           -0.91283993399666       -1.35905766289050       -4.13767262771733
C           -0.34295482747417       -2.39762199311040       -3.40505733586965
C           -0.84448721758864       -2.77024505474416       -2.17321001887864
C           -1.92360449217279       -2.05890179773965       -1.66608940100429
C            0.14020133126839       -1.00037437671275        0.16446829428946
C           -0.74088786865876        0.17712645675021        0.20439383242801
O           -1.82167215565536        0.32804002579293        0.72011845506359
H           -3.96284593582018        2.62631863128698        3.48169179999323
H           -5.31060356787673        1.49999129096427        3.33170490161941
H           -4.05110069701795        1.52969310659768        2.10171677753073
H           -6.10768068385516        2.70867841869691        1.30665851093689
H           -6.04648491003161        3.76451447849655        2.71893899996320
H           -5.13902761611090        5.03682213572473        0.92329424761114
H           -3.76648602384843        4.55505335851613        1.91822852235125
H           -4.65410994999317        3.26851112434146       -0.70075663732044
H           -3.37825003326030        2.62865548001088        0.32826065414662
H           -3.39583031870240        5.42092938224124       -0.90350799671688
H           -2.10404331236183        4.75139419127302        0.08000140175551
H           -1.48684929262140        4.62055946592061       -2.26217891895408
H           -3.01042936829712        3.83791939933042       -2.68186249537541
H           -2.38148403177524        1.80881224463660       -1.48840052146990
H           -1.14162194059279        2.23715880936980       -2.66745541421055
H           -0.98736423770933        2.82235890748097        0.32756829503848
H            0.29295088612717        3.15961630743916       -0.87426422140597
H            3.89711618822533       -3.29226838174262       -1.56481562646639
H            6.30794959672250       -3.14059423471013       -2.05527731130548
H            7.58633499261828       -1.15639921181724       -1.31609615854625
H            6.45725005229735        0.62667225027180       -0.04621909209202
H            3.33780875756695       -1.47207380365984        2.25532638977263
H            1.63269334438593       -1.31523372418160        4.02954637656718
H            0.45615356189807        0.78742451232255        4.46723018013516
H            1.02157558893979        2.83435374240590        3.20100835020203
H            2.11138663403683        4.67868126532908        1.49189501535154
H            3.37366611202134        5.84121664849929       -0.29107234120162
H            4.92551346402941        4.60565596784792       -1.72710486584589
H            5.27604093058034        2.18747928907859       -1.44010487456569
H            0.33518843728454       -4.09169011106064        2.49984790057435
H           -1.42437897854137       -5.52802439647285        3.44998273745906
H           -3.72900778531461       -5.39456537674999        2.55610200312407
H           -4.23418242693194       -3.86105881061484        0.69962537573866
H           -4.61019110013598       -1.63399335443721        1.45036135556308
H           -6.38346129822100        0.00264564272605        0.98246055766461
H           -6.44332746396152        1.23973744682360       -1.13142979741015
H           -4.68313114626438        0.89925621218529       -2.83779051450222
H           -2.49368635021886        0.08710482266297       -4.25358104697816
H           -0.48494893611065       -1.08923121822231       -5.09144653603943
H            0.50621998349663       -2.92735380260351       -3.81109578523821
H           -0.41384890553611       -3.59925320024051       -1.63157075225985
