97
 energy: -148.201900407047 gnorm: 0.000033589612 xtb: 6.7.1 (edcfbbe)
C           -4.20472498299343        2.00767879488163        2.97080829625716
C           -5.05386621449167        3.09476572402709        2.32112826809709
C           -4.22337862853876        4.08976907543243        1.50958502557322
C           -3.69521615627480        3.48802818646768        0.20932860839711
C           -2.73312319533609        4.43534895339800       -0.50406814864487
C           -2.19644793065312        3.87946877720217       -1.82606910716195
C           -1.58850726899436        2.48079260413662       -1.72311187917604
C           -0.47026558363639        2.39461219242829       -0.68676445356977
N            0.00763344751768        1.04254350579388       -0.52696008047724
C            1.26090511302620        0.62343129967742       -0.90322538565533
O            2.03890379282581        1.25571706456392       -1.58255285432786
C            1.38029286853301       -0.73717103136728       -0.34460208392103
C            2.40676120869204       -1.63567775412709       -0.12330824740618
C            3.83180610953375       -1.47763612212868       -0.18931980093859
C            4.62235831477690       -2.58634507286448       -0.52768773686820
C            5.98980744686015       -2.48736939974884       -0.63796459884112
C            6.61952530505265       -1.27577241316446       -0.37818314950459
C            5.87044277998314       -0.18279637357805        0.01206713413966
C            4.48543672139309       -0.26184290493657        0.12054852112348
N            3.78741080620024        0.85536492391206        0.58961213854652
C            2.81485517506603        0.86471041794511        1.57582696379386
C            2.42648779182688       -0.14210772763423        2.44930218450471
C            1.39909622204250        0.12841105181877        3.33292316640422
C            0.78817030404091        1.37891884840009        3.37645204290390
C            1.22304423564340        2.40794962230252        2.56381075286677
C            2.25087529670059        2.15694006755703        1.66525934321202
C            2.94455287680762        2.97151311791650        0.70614461732451
C            2.82810204016088        4.30074960917255        0.32936506566933
C            3.64730664118584        4.77619573866495       -0.67688967008489
C            4.55484129440024        3.93525864984048       -1.31801666088717
C            4.68286498617649        2.60678624181153       -0.96552398206173
C            3.88277194629893        2.12820847745666        0.06441586061890
S            1.73828200349751       -3.11989068355385        0.55915674972230
C            0.06215047312317       -2.48333560632393        0.55306267566257
C           -0.99034467409665       -3.35915171372849        0.82528501224809
C           -0.74462209809289       -4.54064743824922        1.58019845576821
C           -1.76053822306447       -5.34268935030301        2.01259858580016
C           -3.08931639906710       -5.04339033679786        1.68384383710848
C           -3.36109036270948       -3.95679327305286        0.87527934790818
C           -2.34638515345445       -3.13088034951335        0.40944814873068
N           -2.65794148370391       -2.14963493296255       -0.52625417424399
C           -3.72437300983842       -1.28302571430762       -0.44403179690235
C           -4.62351781106193       -1.08135733820330        0.59703654372003
C           -5.61087676318742       -0.13224948219513        0.42240581583791
C           -5.69998548103542        0.61770968627989       -0.74815736036011
C           -4.77941708343551        0.45728337072750       -1.76890853791268
C           -3.78416663894308       -0.49446445041687       -1.61787052420075
C           -2.68530305824058       -0.91543656094855       -2.44689288204843
C           -2.23605044763715       -0.52254748357981       -3.69818709889571
C           -1.14734338783381       -1.17651946567461       -4.24525700568774
C           -0.53860060066334       -2.23255498572184       -3.57341701620518
C           -0.97336545170762       -2.64210447441674       -2.32676939796979
C           -2.02428921649583       -1.94731727084135       -1.74374993075364
C            0.11341764432345       -1.13323189403475        0.10582025135893
C           -0.72784499445589        0.04285862965585        0.14008602842652
O           -1.80694766275454        0.25292200480073        0.66370243997141
H           -3.47217475042813        2.45307326186052        3.64123553154096
H           -4.83261265519670        1.33568203425120        3.55231758041088
H           -3.67528727718343        1.41779619981824        2.22726401830236
H           -5.79740594383948        2.63476224619118        1.66709457309078
H           -5.59078262280350        3.63780821176030        3.10379359085502
H           -4.83486020758907        4.96626123446105        1.27764826610565
H           -3.38225136244478        4.42959798613605        2.11917706000640
H           -4.53512710118624        3.26008354461464       -0.45059440023388
H           -3.18987247483988        2.55069358583570        0.43554570099975
H           -3.24613312433451        5.37869365948041       -0.71178283486695
H           -1.89772731041210        4.66704804534509        0.15994959396482
H           -1.44404183787582        4.57019599098539       -2.21509824867655
H           -3.01320726541038        3.83916325790292       -2.55086452679406
H           -2.36379109519696        1.76405073443577       -1.45338027622326
H           -1.18775925780965        2.18864195025103       -2.69692741397933
H           -0.83435658220631        2.72279157953455        0.29006061249278
H            0.38702549015391        3.00424430389576       -0.98385180991729
H            4.12533172472389       -3.52413097787861       -0.72855478693768
H            6.57206685562446       -3.35049324167586       -0.92221889475572
H            7.69304817178566       -1.19339812578359       -0.45183760540466
H            6.35973554942989        0.74227282329580        0.27844646713923
H            2.90426248113077       -1.11000197419211        2.43928824128537
H            1.06306404597755       -0.64851870975897        4.00301612970801
H           -0.02505719937157        1.54529097207905        4.06621630613829
H            0.77692181355671        3.38925717300154        2.62333268321846
H            2.10587664600141        4.94423895875289        0.80936842622866
H            3.57450155892335        5.80878838455412       -0.98461749577036
H            5.16490183222248        4.32997545645554       -2.11680605693542
H            5.36127936565487        1.95757727816254       -1.49589656109430
H            0.27937436168098       -4.76695837602192        1.83913495391108
H           -1.54244288425041       -6.21543949255190        2.60956209841229
H           -3.88963244528288       -5.68575996235064        2.01506387900070
H           -4.37142924475578       -3.77765310596381        0.53770861492671
H           -4.54047537697944       -1.63083217758810        1.52110264104093
H           -6.32518899512242        0.03671044506275        1.21389363217569
H           -6.49184219593270        1.34492487123764       -0.85159036159579
H           -4.82923924707869        1.06161295063347       -2.66227121790335
H           -2.73238653055281        0.27301880694374       -4.23285011525674
H           -0.77226756075902       -0.87839319720502       -5.21256515520050
H            0.28997716321955       -2.74694190867053       -4.03653683804953
H           -0.50240097846051       -3.47415109597145       -1.82697001668583
