  97
       -148.27694390
 C         -4.7038049248        2.2669018597        2.7370695830
 C         -5.4972173456        3.2869021560        1.9282607184
 C         -4.6026914972        4.2404959544        1.1353954490
 C         -3.9355688743        3.5665438938       -0.0615930265
 C         -2.9362033393        4.4967523656       -0.7456729910
 C         -2.2941454225        3.8906179007       -1.9958960901
 C         -1.6469255450        2.5239204018       -1.7761890799
 C         -0.5887569530        2.5383604719       -0.6739254340
 N         -0.0249096705        1.2221314386       -0.4811024977
 C          1.2289111846        0.8552369737       -0.9508484319
 O          1.9350666687        1.5412447733       -1.6466617004
 C          1.4263539172       -0.5118470053       -0.4498743913
 C          2.4286497269       -1.4347130018       -0.4245348851
 C          3.8387939926       -1.2684483930       -0.7406626455
 C          4.5021320751       -2.2071361716       -1.5249138913
 C          5.8306851485       -2.0358417686       -1.8631279816
 C          6.5210966325       -0.9259606173       -1.4035516758
 C          5.8896378907       -0.0041394768       -0.5891298413
 C          4.5529712708       -0.1621225402       -0.2425109871
 N          3.9416287678        0.7628279033        0.6135457667
 C          3.1567531857        0.4390763793        1.7036799075
 C          3.0586530539       -0.7642341991        2.3876897349
 C          2.1746400814       -0.8331670340        3.4474025571
 C          1.4229180311        0.2721323219        3.8383416866
 C          1.5684260705        1.4899195419        3.2039008569
 C          2.4503047164        1.5831871750        2.1354906323
 C          2.8605908771        2.6594339600        1.2764858642
 C          2.5123563346        4.0015134429        1.2023994840
 C          3.0904150689        4.7797969795        0.2200295579
 C          3.9940740937        4.2317738010       -0.6870103875
 C          4.3504485959        2.8979532502       -0.6368840451
 C          3.7846227496        2.1158086252        0.3567972378
 S          1.8185788677       -2.9236893218        0.2597780650
 C          0.2265254121       -2.2482493811        0.5543032656
 C         -0.8149245402       -3.0943557795        1.1061748815
 C         -0.4851657928       -3.9874424081        2.1262825627
 C         -1.4382408168       -4.8010957786        2.7027165945
 C         -2.7467056090       -4.7524386379        2.2470233153
 C         -3.0868315242       -3.9002498033        1.2150439312
 C         -2.1393492486       -3.0614740163        0.6321429189
 N         -2.5315022881       -2.2368372977       -0.4251683195
 C         -3.6213278475       -1.3803373552       -0.4039419386
 C         -4.5538307672       -1.1537150747        0.5965190947
 C         -5.5602285930       -0.2408768080        0.3465616152
 C         -5.6357234548        0.4489228781       -0.8606721577
 C         -4.6865917199        0.2592606275       -1.8440760164
 C         -3.6704130718       -0.6599456941       -1.6171732348
 C         -2.5503538002       -1.0988419294       -2.4014333346
 C         -2.0745522233       -0.7558287914       -3.6600464452
 C         -0.9649991957       -1.4138861638       -4.1509698027
 C         -0.3576048585       -2.4319557103       -3.4197363326
 C         -0.8151555644       -2.7911063712       -2.1669078326
 C         -1.8885326048       -2.0868979256       -1.6382558393
 C          0.2044144874       -0.9508515188        0.1312507038
 C         -0.6991327831        0.2090999893        0.1899874374
 O         -1.7692921886        0.3411365973        0.7316606070
 H         -4.0364193395        2.7726928726        3.4320553886
 H         -5.3774877795        1.6351508777        3.3121163446
 H         -4.1081615930        1.6264174738        2.0919011828
 H         -6.1637919859        2.7654367588        1.2385943957
 H         -6.1184121188        3.8723084105        2.6115422462
 H         -5.2008563761        5.0846279789        0.7816379571
 H         -3.8332679763        4.6408541251        1.8004854071
 H         -4.7012319893        3.2659112461       -0.7798172393
 H         -3.4288711230        2.6638371728        0.2763974800
 H         -3.4485672019        5.4176620385       -1.0379588426
 H         -2.1572689913        4.7770005175       -0.0335543619
 H         -1.5407951423        4.5863109096       -2.3737243788
 H         -3.0587310829        3.7803055530       -2.7683912962
 H         -2.4115584303        1.7911785540       -1.5156353373
 H         -1.1753641482        2.1972205872       -2.7064655097
 H         -1.0321788715        2.8423699749        0.2766503914
 H          0.2360133608        3.2081809546       -0.9297962526
 H          3.9518790608       -3.0638823911       -1.8858924487
 H          6.3264956785       -2.7657453606       -2.4843541328
 H          7.5591269014       -0.7867418646       -1.6651361598
 H          6.4338389020        0.8404272671       -0.1939140358
 H          3.6589729257       -1.6171732912        2.1063556546
 H          2.0685838682       -1.7624591041        3.9877969764
 H          0.7317743763        0.1751925086        4.6619363391
 H          1.0111095171        2.3547660390        3.5304290465
 H          1.8003879823        4.4197620172        1.8984276892
 H          2.8338041371        5.8261705576        0.1443766117
 H          4.4195390648        4.8624057701       -1.4534486992
 H          5.0254153721        2.4770357029       -1.3652369005
 H          0.5370760714       -4.0162564814        2.4747399784
 H         -1.1632012098       -5.4737597876        3.5003394999
 H         -3.4983663101       -5.3923639831        2.6837956343
 H         -4.0940905222       -3.8922783061        0.8267240853
 H         -4.4904602751       -1.6569065407        1.5486996856
 H         -6.3034941495       -0.0556699974        1.1075213281
 H         -6.4436656045        1.1474703432       -1.0214977259
 H         -4.7277440821        0.8092913623       -2.7726625432
 H         -2.5695471764        0.0078026939       -4.2408905510
 H         -0.5713626602       -1.1544577611       -5.1222272346
 H          0.4856581176       -2.9569812130       -3.8438059624
 H         -0.3563522012       -3.6052810749       -1.6259745644
