  97
       -148.20278239
 C         -1.7007407246        1.8965352242       -2.7014277911
 C         -2.6385478781        0.6975469552       -2.6298826547
 C         -4.0662261674        1.1060173566       -2.2763787202
 C         -5.0231603353       -0.0846497614       -2.3032074736
 C         -6.4678614073        0.3002725065       -1.9751393218
 C         -6.7066650006        0.5679114552       -0.4877330857
 C         -6.7279609743       -0.7171360685        0.3532881930
 C         -5.9161560850       -0.5929552659        1.6444188948
 N         -4.5024304966       -0.4822490180        1.3668699547
 C         -3.7251498153       -1.5589977499        0.9736855030
 O         -4.1726985104       -2.6817916555        0.8348543668
 C         -2.3744680070       -1.0156171794        0.7878829608
 C         -1.0981703331       -1.5085106508        0.4221150354
 C         -0.6349059003       -2.8328051647        0.2735940465
 C         -1.4812763432       -3.9281919740        0.5859220698
 C         -1.0129182295       -5.2131301420        0.6454068903
 C          0.3295343475       -5.4933994393        0.3870626802
 C          1.1707866817       -4.4613681359        0.0229265184
 C          0.7131847538       -3.1534995245       -0.0745402989
 N          1.6198059841       -2.1971756999       -0.5504809500
 C          2.9256160561       -2.1021983524       -0.1099385667
 C          3.4856958605       -2.5846358086        1.0643041400
 C          4.8366470085       -2.3744152543        1.2648811250
 C          5.6126073805       -1.7066303270        0.3208766814
 C          5.0497069923       -1.1922643796       -0.8331145391
 C          3.6913336650       -1.3689925169       -1.0428506662
 C          2.7896440036       -0.9902715137       -2.0977615599
 C          2.9470179139       -0.2761257377       -3.2753045491
 C          1.8552677829       -0.1333097690       -4.1120387879
 C          0.6282242072       -0.7107653255       -3.7964933025
 C          0.4471295360       -1.4226267898       -2.6251638468
 C          1.5302051401       -1.5398692791       -1.7678419572
 S          0.0193557748       -0.1371705292        0.3484807824
 C         -1.2087804344        1.0506568727        0.8160995798
 C         -0.9257343600        2.4312357608        0.8011258732
 C         -1.9800795068        3.3810296947        0.8522935891
 C         -1.7669342240        4.7131254849        0.6233264838
 C         -0.4841199876        5.1899456099        0.3461976709
 C          0.5763493350        4.3070648563        0.3546182753
 C          0.3910082732        2.9531744078        0.6082053621
 N          1.5377562807        2.1577498391        0.7055164400
 C          1.9738744763        1.5067344015        1.8509512132
 C          1.2762504416        1.1965727347        3.0085089765
 C          1.9558817196        0.5320811371        4.0124347284
 C          3.2998671566        0.1949848945        3.8786177432
 C          4.0083526868        0.5312905902        2.7397991251
 C          3.3450263320        1.1920818423        1.7178216630
 C          3.7612208631        1.7003787075        0.4378862210
 C          4.9772320607        1.7484159280       -0.2250692438
 C          5.0204211926        2.3161937641       -1.4856560252
 C          3.8689960850        2.8136412474       -2.0907094677
 C          2.6516308432        2.8012983061       -1.4367707651
 C          2.6135020509        2.2702377206       -0.1551481831
 C         -2.4309597835        0.3650644769        1.0090690218
 C         -3.7923393201        0.7050804964        1.4325402648
 O         -4.2866772113        1.7547599638        1.8005575866
 H         -0.6740483543        1.5696786274       -2.8565592933
 H         -1.9840384106        2.5529523212       -3.5217698436
 H         -1.7441617703        2.4704684821       -1.7783148421
 H         -2.6393759176        0.1801680386       -3.5925129052
 H         -2.2709485114       -0.0072027660       -1.8814397691
 H         -4.0667116792        1.5679285394       -1.2869369103
 H         -4.4112536610        1.8587413796       -2.9898189121
 H         -4.6731296388       -0.8466608862       -1.6032512797
 H         -4.9959743078       -0.5277845600       -3.3022830691
 H         -6.7275947943        1.1949919476       -2.5460168755
 H         -7.1368984692       -0.5009689259       -2.2985113567
 H         -7.6576346777        1.0913392353       -0.3719021968
 H         -5.9316207505        1.2388197195       -0.1185886841
 H         -7.7532008059       -0.9788933087        0.6184380583
 H         -6.3177940399       -1.5509924146       -0.2184026298
 H         -6.0684972185       -1.4816140086        2.2640307159
 H         -6.2039365913        0.3008248170        2.2028340566
 H         -2.5211177533       -3.7387057612        0.7860853423
 H         -1.6902832925       -6.0148140689        0.8969893078
 H          0.7001334843       -6.5054487478        0.4322975506
 H          2.1995433758       -4.6660656373       -0.2374679984
 H          2.8863494413       -3.1096125758        1.7923944975
 H          5.3010740642       -2.7457048437        2.1661349304
 H          6.6712004084       -1.5860366279        0.4990328312
 H          5.6515410018       -0.6710994176       -1.5611721151
 H          3.9038407343        0.1520830722       -3.5308867115
 H          1.9550175730        0.4232165241       -5.0319463639
 H         -0.1989826614       -0.6030494816       -4.4813872495
 H         -0.5048878660       -1.8724161835       -2.3885380538
 H         -2.9753770097        3.0382168529        1.0729820125
 H         -2.5995025226        5.3990054569        0.6562408069
 H         -0.3139657309        6.2402101078        0.1690077949
 H          1.5834443976        4.6704024908        0.2086956059
 H          0.2358848687        1.4601345528        3.1236461817
 H          1.4318979129        0.2709076627        4.9195646072
 H          3.7954562431       -0.3277924038        4.6828493589
 H          5.0553403506        0.2891942718        2.6442857842
 H          5.8685150341        1.3557461857        0.2389482946
 H          5.9599955275        2.3701033341       -2.0159209188
 H          3.9298419792        3.2276417264       -3.0860914835
 H          1.7609030151        3.1921414765       -1.9046127074
