  62
  -201.630451070000       0.421658954029827      !
 F         -0.8497436865       -0.7821027465        3.7980237798
 C         -0.4717018741       -0.4267298858        2.5723384207
 C          0.6656121011        0.2555385557        2.3483491114
 F          1.5539253318        0.6151666566        3.2661874262
 C          0.9850811125        0.6052428942        0.9053700790
 C          0.6791481687        2.0760400267        0.6174957581
 C          0.7914012860        2.5996265623       -0.6744412822
 F          1.2201340217        1.8314225862       -1.6786837727
 C          0.5097860405        3.9249168313       -0.9833896359
 F          0.6175062569        4.3354946321       -2.2444705236
 C          0.1082785739        4.8035875942        0.0163772028
 F         -0.1606438256        6.0705617588       -0.2624790289
 C         -0.0050663796        4.3186378814        1.3134318076
 F         -0.3831389810        5.1260071294        2.2973808053
 C          0.2675259276        2.9804244573        1.5985734224
 F          0.0923659037        2.6081417872        2.8626856612
 C          2.4898372578        0.3211920297        0.7684482651
 C          3.4711521776        1.2173931253        0.3358499331
 F          3.2077684440        2.4832424342        0.0084875297
 C          4.8203682114        0.8685890481        0.2499668639
 F          5.6854792877        1.7739221563       -0.1904512704
 C          5.2617120292       -0.3917868545        0.6302655481
 F          6.5387396090       -0.7278503873        0.5367113468
 C          4.3233063698       -1.2781086237        1.1456009824
 F          4.6859687799       -2.4866225502        1.5658510139
 C          2.9869727474       -0.9067754640        1.2275743132
 F          2.1723153316       -1.8007379594        1.8087806027
 C         -0.0427423156       -0.3811811121        0.0883108559
 C         -0.7883712939        0.2657504529       -1.0739671052
 C         -1.7044690036        1.2818247929       -0.7757293563
 F         -1.9167925291        1.6309175822        0.5085280959
 C         -2.4587673014        1.9545571989       -1.7267705841
 F         -3.2805226512        2.9283477984       -1.3391312418
 C         -2.3565943019        1.5977796304       -3.0668735703
 F         -3.0646813120        2.2253578261       -3.9944600896
 C         -1.5172030442        0.5408290420       -3.3953271704
 F         -1.4295392208        0.1295174298       -4.6539728837
 C         -0.7628412589       -0.1144084058       -2.4194539197
 F         -0.0529163234       -1.1477654994       -2.8664885080
 C          0.6898266049       -1.6413706559       -0.3542134871
 C          1.7804195304       -1.6393435958       -1.2266559168
 F          2.2391552272       -0.4965736960       -1.7411458332
 C          2.4347185677       -2.8054483710       -1.6125132245
 F          3.4807490079       -2.7226640297       -2.4300585226
 C          2.0111801891       -4.0399455662       -1.1335517386
 F          2.6258891679       -5.1549730890       -1.4993766290
 C          0.9376780847       -4.0758123409       -0.2493894623
 F          0.5121692094       -5.2317547149        0.2469020625
 C          0.3146033611       -2.8925881613        0.1305990595
 F         -0.6655616655       -2.9842758815        1.0382997479
 B         -1.1589531745       -0.7335927342        1.2398608057
 C         -2.6644579361       -1.0906622451        1.0179042615
 C         -3.6373427259       -0.7357917401        1.9613448940
 F         -3.2969131994       -0.0051321582        3.0146049868
 C         -4.9766745324       -1.0932364518        1.8254659401
 F         -5.8628702024       -0.7336747083        2.7491981670
 C         -5.3897548587       -1.8324522003        0.7202462358
 F         -6.6601752734       -2.1877316057        0.5840334392
 C         -4.4533566168       -2.1866765601       -0.2489423101
 F         -4.8285197797       -2.8769034613       -1.3243236332
 C         -3.1276623324       -1.8086883159       -0.0891870496
 F         -2.2613292104       -2.1731639615       -1.0463057157
  62
  -201.630117260000       0.296178052279910      !
 F         -1.3016951120        0.6358834984        3.6148413754
 C         -0.7744213937        0.5285445029        2.3947508105
 C          0.1363327720        1.4071082043        1.9368917691
 F          0.6309059073        2.4465338419        2.5938325512
 C          0.8283439627        0.9889970027        0.6450705439
 C          1.1394269868        2.1672223115       -0.2671904147
 C          2.2102884598        2.1817694221       -1.1633380964
 F          3.0391539402        1.1472475300       -1.2474733766
 C          2.4707156175        3.2700447952       -1.9923237887
 F          3.5073482295        3.2271671140       -2.8198583302
 C          1.6492382020        4.3919486426       -1.9560163874
 F          1.8852469011        5.4293947289       -2.7457722998
 C          0.5669677766        4.3995476931       -1.0824251887
 F         -0.2607537335        5.4399793905       -1.0418482994
 C          0.3299022999        3.3037091730       -0.2596713079
 F         -0.7517595263        3.3567819079        0.5284253100
 C          2.0878807105        0.4147392550        1.3081770137
 C          3.1991148941        1.2174977683        1.5832848644
 F          3.2430894091        2.5026361068        1.2203753873
 C          4.3130104931        0.7408657131        2.2718597663
 F          5.3452412097        1.5515033033        2.4712547578
 C          4.3368316216       -0.5584990601        2.7633475649
 F          5.3918863181       -1.0177291483        3.4202680237
 C          3.2116234220       -1.3552637766        2.5763426249
 F          3.1655785324       -2.5873072806        3.0711841466
 C          2.1166651167       -0.8576774017        1.8819903764
 F          1.0547192528       -1.6677941061        1.7734661192
 C         -0.2423362646       -0.0148609451       -0.0020205539
 C         -1.1610713920        0.8596438708       -0.8766978356
 C         -2.4176670834        1.3045532012       -0.4756175412
 F         -2.9017394410        0.9553029271        0.7121270464
 C         -3.2329355343        2.0946582659       -1.2843604674
 F         -4.4194626678        2.4820527081       -0.8379669848
 C         -2.8062058885        2.4659089869       -2.5549547291
 F         -3.5648639735        3.2229164932       -3.3331606567
 C         -1.5672824765        2.0128169767       -2.9979089977
 F         -1.1207756348        2.3392063201       -4.2079313218
 C         -0.7804999713        1.2179062187       -2.1723736120
 F          0.3915738721        0.8000156707       -2.6760790475
 C          0.1724610191       -1.1548298422       -0.9319276538
 C          1.4329315471       -1.6690350027       -1.2187543345
 F          2.5479991991       -1.1881489390       -0.6688946706
 C          1.6313257299       -2.7370560354       -2.0965218366
 F          2.8718246839       -3.1639210602       -2.3070954921
 C          0.5637978470       -3.3442018178       -2.7389308703
 F          0.7503538120       -4.3543045457       -3.5772993310
 C         -0.7135716305       -2.8634686943       -2.4705132983
 F         -1.7811891512       -3.4141462423       -3.0431466456
 C         -0.8832184176       -1.8054316045       -1.5912262854
 F         -2.1563533266       -1.4333859819       -1.3570968909
 B         -1.0498278143       -0.5479630789        1.3315600932
 C         -1.9361557555       -1.8186121896        1.5577872578
 C         -1.6008040980       -3.1214076298        1.1737863492
 F         -0.4246384323       -3.3792686475        0.5848465352
 C         -2.4231022791       -4.2180872122        1.4038873290
 F         -2.0359729887       -5.4287241611        1.0056365566
 C         -3.6462093278       -4.0483235930        2.0450020083
 F         -4.4453771994       -5.0851829077        2.2599752794
 C         -4.0081462440       -2.7731251327        2.4669555746
 F         -5.1637436550       -2.5853243576        3.0993072789
 C         -3.1579112924       -1.6947018541        2.2375183310
 F         -3.5600405807       -0.5093429899        2.6783656715
  62
  -201.630071450000       0.282162993690263      !
 F         -0.8672130581       -0.7385560028        3.7941441776
 C         -0.4876629404       -0.3923974532        2.5663180057
 C          0.6496335607        0.2892482137        2.3408898545
 F          1.5345906118        0.6554672169        3.2595634158
 C          0.9776082172        0.6223140447        0.8959628521
 C          0.6902004949        2.0942948180        0.5922702712
 C          0.8185706827        2.6077534648       -0.7023453021
 F          1.2392353056        1.8275722912       -1.7000942854
 C          0.5591782753        3.9349908231       -1.0224641762
 F          0.6821329204        4.3344939269       -2.2856870499
 C          0.1647086949        4.8269999378       -0.0319173445
 F         -0.0813867571        6.0962557484       -0.3212082067
 C          0.0329809041        4.3520198080        1.2670730985
 F         -0.3410831570        5.1713393539        2.2426899907
 C          0.2828080116        3.0116514234        1.5632128500
 F          0.0896019225        2.6506041289        2.8279871894
 C          2.4804291000        0.3204176468        0.7738740672
 C          3.4754173098        1.2056549037        0.3507189279
 F          3.2262721243        2.4704404820        0.0082493908
 C          4.8234107156        0.8463648216        0.2909798869
 F          5.7030472619        1.7424846404       -0.1394029168
 C          5.2486098774       -0.4145865365        0.6874087258
 F          6.5249111300       -0.7599817350        0.6207767199
 C          4.2943845965       -1.2915563832        1.1894810274
 F          4.6405718978       -2.5001171588        1.6231408228
 C          2.9598710550       -0.9094986755        1.2464308415
 F          2.1292149362       -1.7938046178        1.8193943522
 C         -0.0519776861       -0.3638046003        0.0824599963
 C         -0.7975623611        0.2888014391       -1.0768580852
 C         -1.7073706251        1.3080411510       -0.7709278573
 F         -1.9137812196        1.6496410370        0.5161571769
 C         -2.4569592229        1.9926827051       -1.7170406615
 F         -3.2713187611        2.9703125094       -1.3235938495
 C         -2.3564296473        1.6444175694       -3.0596236159
 F         -3.0595600805        2.2838211062       -3.9830287472
 C         -1.5235748313        0.5847348151       -3.3958488321
 F         -1.4378056403        0.1830006128       -4.6577271469
 C         -0.7732523158       -0.0821201812       -2.4246874602
 F         -0.0664677403       -1.1145542959       -2.8783641582
 C          0.6755003143       -1.6262354835       -0.3642393637
 C          1.7645846334       -1.6268835474       -1.2386623168
 F          2.2347040268       -0.4848735257       -1.7436336531
 C          2.4082701496       -2.7948750754       -1.6366650051
 F          3.4515803747       -2.7129612243       -2.4577392738
 C          1.9762691131       -4.0300778906       -1.1676750744
 F          2.5784993601       -5.1473014566       -1.5473886195
 C          0.9087661222       -4.0634341722       -0.2764786561
 F          0.4770184248       -5.2193704531        0.2148466944
 C          0.2971874128       -2.8784321817        0.1165079108
 F         -0.6727839859       -2.9723517504        1.0345753702
 B         -1.1707941640       -0.7097772201        1.2341045940
 C         -2.6699063830       -1.0971126687        1.0187911157
 C         -3.6421180063       -0.7848818303        1.9782467916
 F         -3.3168931629       -0.0430973730        3.0282902859
 C         -4.9670789235       -1.1990080121        1.8637901918
 F         -5.8510670632       -0.8823458968        2.8052449634
 C         -5.3673411868       -1.9520570628        0.7632928472
 F         -6.6223447649       -2.3650643075        0.6497418744
 C         -4.4341787429       -2.2591549746       -0.2248627050
 F         -4.7977535538       -2.9609124040       -1.2967267148
 C         -3.1232871674       -1.8257467835       -0.0859216640
 F         -2.2598680186       -2.1502565668       -1.0599737350
