  106
       -152.66672763
 C         -4.6484738580        4.7144514567        4.0604324798
 C         -3.6425823491        4.1826401076        3.0359499885
 C         -3.3486286825        5.3084723033        2.0290223895
 C         -2.3490297456        3.8144049624        3.7826760519
 C         -4.1441337198        2.9682515550        2.2885903896
 C         -5.4208093096        2.3947847447        2.5099948542
 C         -5.8712938248        1.3108620373        1.8172312610
 C         -5.0378773620        0.7175630951        0.8194858285
 C         -3.7335654523        1.3062242749        0.5926488479
 C         -3.3077029771        2.3754722087        1.3089566276
 C         -3.0085448070        0.5425409714       -0.5003511333
 C         -2.8102518026        1.3557252300       -1.7591620268
 C         -3.6198365927        2.4489045575       -2.0526145167
 C         -3.4509790710        3.1130048598       -3.2555408931
 C         -2.4809459100        2.6540665716       -4.1325922897
 N         -1.7119249811        1.6102826236       -3.8681007623
 C         -1.8746343510        0.9812791316       -2.7212469963
 C         -1.7137160846        0.0082463462        0.0720510100
 C         -0.5726008357        0.8184272426        0.0805823755
 C          0.6170066966        0.3977463003        0.6383052942
 C          0.6659066499       -0.8730760632        1.1923607370
 C         -0.4885883319       -1.6874772653        1.2290180465
 C         -1.6773153549       -1.2404851218        0.6725038921
 C         -0.1138355205       -2.8943086837        1.9114523927
 C         -0.7964632052       -4.0595731294        2.2329641481
 C         -0.1143009942       -5.0652173209        2.8890952852
 C          1.2339766859       -4.9257551090        3.2096219537
 C          1.9348940943       -3.7753490033        2.8985945098
 C          1.2487613205       -2.7519920548        2.2617974663
 N          1.7072530210       -1.5245325240        1.8207224691
 C          3.0117874312       -1.0373904393        1.9692435032
 C          3.6268427232       -1.0560360022        3.2191493540
 C          4.9210703624       -0.5885537851        3.3533076592
 C          5.6085545998       -0.0925866439        2.2609479004
 C          4.9990220830       -0.0743544577        1.0075924958
 N          5.6996221760        0.4043097289       -0.1055451977
 C          6.9769651022        0.0249266560       -0.4741656770
 C          7.8209289155       -0.9149228108        0.0994451216
 C          9.0518268198       -1.1241152239       -0.4929169676
 C          9.4381741268       -0.4258093973       -1.6345904731
 C          8.5920156487        0.4910670302       -2.2253658589
 C          7.3495576439        0.7179992139       -1.6484242401
 C          6.2380983611        1.5574839406       -1.9980683943
 C          6.0151890928        2.4677013681       -3.0229138030
 C          4.8103464144        3.1404842687       -3.0605839825
 C          3.8418234530        2.9287613947       -2.0824171131
 C          4.0441619416        2.0314446334       -1.0514989870
 C          5.2401194190        1.3302340191       -1.0233144141
 C          3.7007295816       -0.5502961485        0.8639365256
 C         -4.0189257824       -0.5372723609       -0.8334095399
 C         -3.9203150945       -1.5426948909       -1.7386397701
 C         -4.9860897204       -2.4584596945       -1.9176647802
 C         -4.8243686979       -3.5793497245       -2.9182724219
 C         -3.6132057845       -4.4393288052       -2.5168780355
 C         -4.5841905977       -2.9778671779       -4.3137141553
 C         -6.0495090116       -4.4943577586       -2.9988459157
 C         -6.1608243342       -2.2750557522       -1.1435845307
 C         -6.2939801290       -1.2692585768       -0.2344772735
 C         -5.2128604230       -0.3571283652       -0.0316874715
 H         -4.8699683276        3.9653766795        4.8171581091
 H         -4.2287170284        5.5842921865        4.5621300593
 H         -5.5743729424        5.0202090373        3.5785530687
 H         -4.2564081714        5.5776914281        1.4930658847
 H         -2.6005341029        5.0059444075        1.3016595624
 H         -2.9810662028        6.1896656540        2.5505658275
 H         -1.9782813256        4.6758439228        4.3342732131
 H         -1.5725384547        3.4884267616        3.0963687984
 H         -2.5403414661        3.0074679735        4.4868364152
 H         -6.0653778207        2.8255160563        3.2594287896
 H         -6.8432428647        0.8867043438        2.0177764124
 H         -2.3282516669        2.7889437589        1.1207751120
 H         -4.3688018232        2.7724523460       -1.3435456642
 H         -4.0614779523        3.9665950094       -3.5076312977
 H         -2.3075880491        3.1349031980       -5.0860789426
 H         -1.2140380878        0.1398778856       -2.5523477214
 H         -0.6209053793        1.7986946591       -0.3708447977
 H          1.4779281200        1.0476571509        0.6512990376
 H         -2.5611161089       -1.8591829555        0.7048288098
 H         -1.8371065697       -4.1724675835        1.9691968444
 H         -0.6267435282       -5.9787742975        3.1511817582
 H          1.7450960799       -5.7357587180        3.7084897744
 H          2.9844496237       -3.6852313607        3.1346116283
 H          3.0817679665       -1.4200362405        4.0762703920
 H          5.3942832374       -0.5965289242        4.3237050956
 H          6.6090967693        0.2954987317        2.3723489264
 H          7.5246558027       -1.4764482282        0.9726563548
 H          9.7274436976       -1.8488533629       -0.0630182140
 H         10.4097883601       -0.6156959171       -2.0657139941
 H          8.8832039426        1.0197750407       -3.1203736880
 H          6.7736705180        2.6441720508       -3.7704853431
 H          4.6148434960        3.8486924888       -3.8517384750
 H          2.9138201896        3.4790874486       -2.1286529831
 H          3.2968149249        1.8941141957       -0.2858311071
 H          3.2383516549       -0.5716389564       -0.1113056760
 H         -3.0176113742       -1.6475666361       -2.3218989349
 H         -2.6985831493       -3.8536329234       -2.4964517158
 H         -3.4818022957       -5.2529180531       -3.2271521521
 H         -3.7671440018       -4.8656698636       -1.5275735158
 H         -4.4680401417       -3.7727899216       -5.0475432225
 H         -5.4300991343       -2.3584380386       -4.6047842318
 H         -3.6897047135       -2.3617311775       -4.3333529528
 H         -5.8669792878       -5.2798720608       -3.7295300166
 H         -6.2489905325       -4.9681012911       -2.0402552652
 H         -6.9314541215       -3.9419135671       -3.3147918298
 H         -6.9866420225       -2.9552469029       -1.2774003915
 H         -7.2023852153       -1.1512783593        0.3364443235
