  69
       -117.48125707
 C         -8.0724658387       -3.9520289005       -0.1646882122
 C         -6.7689443577       -3.7609462321        0.2617530072
 C         -6.2152460118       -2.4940958452        0.2824488507
 C         -6.9545985085       -1.3883078947       -0.1355243440
 C         -8.2887217216       -1.5895839521       -0.5297091309
 C         -8.8348145850       -2.8618745310       -0.5502125418
 O         -9.1054533886       -0.5539898096       -0.8879384647
 C         -8.5830073584        0.7087108980       -0.8540851741
 C         -9.4231213252        1.7491566023       -1.2137110832
 C         -8.9487750159        3.0501443122       -1.2356235903
 C         -7.6250757351        3.3025095438       -0.9170507818
 C         -6.7797994966        2.2693444657       -0.5562468204
 C         -7.2471729066        0.9572316811       -0.4941187607
 N         -6.4277553185       -0.1041216896       -0.1327317997
 C         -5.0804395964        0.1183897947        0.2232852615
 C         -4.7651708373        0.9147519617        1.3367441708
 C         -3.4614120237        1.1374630178        1.6803108234
 C         -2.4087244026        0.5831972469        0.9105505302
 C         -1.0728104965        0.8417446852        1.2615475045
 N         -0.6476578174        1.5758995522        2.2888471684
 N          0.6561757315        1.5792875453        2.2806335411
 C          1.0722647839        0.8474890089        1.2478667789
 C          2.4053588102        0.5946219661        0.8823383927
 C          2.7290476642       -0.2034195518       -0.2421972758
 C          4.0353488242       -0.4354154383       -0.5777817285
 C          5.0728301608        0.1249840223        0.1812127904
 N          6.4197635131       -0.1076169224       -0.1697448477
 C          7.2506308574        0.9512910277       -0.5108383704
 C          6.7832162569        2.2618183941       -0.6010371649
 C          7.6393201281        3.2937803278       -0.9385925818
 C          8.9747198558        3.0417451707       -1.2043405174
 C          9.4503261249        1.7419552200       -1.1548648252
 C          8.5989363589        0.7025143030       -0.8200193967
 O          9.1233860857       -0.5596878667       -0.8247754688
 C          8.2914816095       -1.5949229910       -0.5021216817
 C          8.8371512662       -2.8676127243       -0.5049335395
 C          8.0596506270       -3.9584715701       -0.1534048753
 C          6.7404878102       -3.7675828152        0.2214224630
 C          6.1876871588       -2.5001106869        0.2258035664
 C          6.9435234670       -1.3933090387       -0.1583136043
 C          4.7643149026        0.9233701847        1.2954089460
 C          3.4629974239        1.1487357510        1.6454277044
 O         -0.0033065977        0.3372237238        0.5529227844
 C         -2.7395420488       -0.2202081921       -0.2080610496
 C         -4.0477469335       -0.4502399626       -0.5364549357
 H         -8.5023351173       -4.9406923363       -0.1850500585
 H         -6.1756348833       -4.6011604265        0.5873829506
 H         -5.2061919543       -2.3498291785        0.6328284447
 H         -9.8598114870       -2.9729046574       -0.8656085583
 H        -10.4415390721        1.5150381176       -1.4783006894
 H         -9.6081746016        3.8565574124       -1.5138996025
 H         -7.2401015032        4.3097030084       -0.9532750786
 H         -5.7462702692        2.4721279957       -0.3270735552
 H         -5.5682009794        1.3288502730        1.9293365378
 H         -3.1996270781        1.7312153118        2.5404476429
 H          1.9278093467       -0.6161929692       -0.8350058214
 H          4.2812124835       -1.0321483798       -1.4447506992
 H          5.7414964766        2.4634778278       -0.4117098418
 H          7.2543066299        4.2998270666       -0.9975337851
 H          9.6430281124        3.8476026952       -1.4624636007
 H         10.4788506252        1.5081804052       -1.3782244374
 H          9.8740826262       -2.9780728320       -0.7786907784
 H          8.4894678163       -4.9473625155       -0.1595303920
 H          6.1337801340       -4.6083328803        0.5196950749
 H          5.1661524199       -2.3568993356        0.5382579661
 H          5.5712334682        1.3357167552        1.8838226318
 H          3.2066396134        1.7418005817        2.5076199895
 H         -1.9421171347       -0.6381508476       -0.8021770103
 H         -4.2995253982       -1.0507589835       -1.3990934220
