69
 energy: -117.602883961675 gnorm: 0.000046788216 xtb: 6.7.1 (edcfbbe)
C           -9.07642056373976       -2.82824530261928        1.23936825304656
C           -7.77328872017236       -2.82379237683086        1.69484771771656
C           -6.87086102573465       -1.87852242004309        1.23113272625371
C           -7.25957909679759       -0.91057910921887        0.31255181301395
C           -8.57475944485595       -0.94735222212068       -0.16969919822484
C           -9.47197720508292       -1.89109142667474        0.29637554181801
O           -9.03465867992672       -0.07740392566731       -1.13034548450645
C           -8.15183841041227        0.86255736170624       -1.60698989750800
C           -8.63175913185755        1.74059121464780       -2.56172611114685
C           -7.81461383818253        2.74091412896339       -3.06742778131903
C           -6.52389792481843        2.86646290518383       -2.59409198292191
C           -6.03814221530628        1.98681091359330       -1.63839322507658
C           -6.83140515258316        0.95650860279834       -1.14728126060655
N           -6.37372416684207        0.05455423321875       -0.18050220065024
C           -5.04297324589024        0.10690211432867        0.27714475107047
C           -4.77090416241469        0.34789594220508        1.62490951728253
C           -3.46919292437457        0.38907376821032        2.07489313068797
C           -2.41349583284609        0.19427193552209        1.18124973964854
C           -1.05548756677943        0.23492840961532        1.66414924470860
N           -0.66476879705478        0.38685280117007        2.89798694915622
N            0.67568863121398        0.36133729130379        2.89891427272393
C            1.06210317544073        0.19551111274759        1.66550484583451
C            2.41835400079487        0.11308754094303        1.18312082539957
C            2.68341071708042       -0.00647828333705       -0.18222978846944
C            3.98537702583876       -0.07653650977041       -0.63065671563918
C            5.04432755522682       -0.03219254292434        0.27578809973487
N            6.37254736429982       -0.10537740044756       -0.18612757613997
C            7.26675021442772        0.94752819151083        0.03937504666298
C            6.88909535168707        2.12127867780946        0.68076435728955
C            7.80030869432589        3.14652608257840        0.88451207798925
C            9.10135719151491        3.02375889835953        0.43961559774984
C            9.48578778669828        1.87366074637169       -0.23375660081637
C            8.57963031836588        0.84958128771314       -0.44078813937181
O            9.02863988265246       -0.24050476879897       -1.14887525047919
C            8.13948035802551       -1.26763407543560       -1.35966839115166
C            8.61021527305484       -2.36679113739576       -2.05469054401787
C            7.78646061183624       -3.46034128654139       -2.27750177951247
C            6.49861171969448       -3.45176977696327       -1.78034418151854
C            6.02191799101226       -2.35053966985581       -1.08527180950588
C            6.82153460422968       -1.23140606805283       -0.88500797558318
C            4.77798274085401        0.08407002981549        1.64114230469584
C            3.47796925034616        0.15844267326303        2.09202233873941
O            0.00181743905488        0.10718284058272        0.82528196280573
C           -2.68416948066749       -0.04108132903023       -0.16776441769897
C           -3.98800480618875       -0.08572759371144       -0.61434697050009
H           -9.78420277097980       -3.55793691451539        1.59977106092356
H           -7.44302920938005       -3.55820513911394        2.41325340683903
H           -5.85190857745377       -1.90071343669600        1.58340141384617
H          -10.47610165789761       -1.87829471403018       -0.09764595420718
H           -9.65246142532969        1.62674337703671       -2.89176265745274
H           -8.19669141352880        3.41858314056322       -3.81452071563168
H           -5.88221690636744        3.65327679459405       -2.96009894342272
H           -5.03380899313311        2.10964149952465       -1.26522538977363
H           -5.58889378134870        0.50875817526765        2.31081419014801
H           -3.24290180540552        0.57867687646643        3.11195503645693
H            1.86494463988224       -0.03325863245244       -0.88561817420674
H            4.19299568127859       -0.15815419918256       -1.68715337651483
H            5.87192395610239        2.24073534518470        1.01819634888304
H            7.47845809451713        4.04331171738458        1.39124922244045
H            9.81601118663939        3.81569820740264        0.59905990634566
H           10.48767006474965        1.75278506393310       -0.61489293371014
H            9.62900226762328       -2.34784203648486       -2.40880935708521
H            8.16140098309866       -4.31150544525396       -2.82365342019751
H            5.85192151391550       -4.30367555332151       -1.92454767040529
H            5.02007124729225       -2.36755012959323       -0.68653508110055
H            5.59877372048089        0.10660356931823        2.34203614600289
H            3.25620717194969        0.24266631431828        3.14388256399370
H           -1.86876091208543       -0.19910474554660       -0.85736300827034
H           -4.20003174826375       -0.27961491795008       -1.65523230280432
