69
 energy: -117.602764121021 gnorm: 0.000058400775 xtb: 6.7.1 (edcfbbe)
C           -8.03614606199389       -3.70818748023670       -1.27143647646413
C           -6.74841946494584       -3.66425809784410       -0.77590748728951
C           -6.18732564081191       -2.45749534180593       -0.38590724379850
C           -6.90125371351962       -1.27002446014608       -0.49502439987815
C           -8.22042945553800       -1.33200148453471       -0.96382016981906
C           -8.77507372160329       -2.53710836036413       -1.35459417476415
O           -9.02967105904039       -0.22313816547928       -1.04156117135719
C           -8.49176576169224        0.98099608325717       -0.65187187871284
C           -9.31162927432736        2.09055167924680       -0.74912585532113
C           -8.83243551338344        3.34751531908402       -0.41065077934082
C           -7.52320263848107        3.48528758089261        0.00487127899359
C           -6.69848593870729        2.37503582850730        0.10601271158882
C           -7.17293845485915        1.10375503718008       -0.19457404182705
N           -6.36703166697664       -0.03693841824897       -0.10668876143203
C           -5.03889428341561        0.05985893411496        0.35225649920397
C           -4.77412093027025        0.50834145840722        1.64736631962222
C           -3.47479274116359        0.61945356658191        2.09251060575465
C           -2.41484481747496        0.28233602470153        1.24747720467891
C           -1.05839907887594        0.43042615954646        1.71392067210683
N           -0.67235796581669        0.86792828565915        2.87918384288507
N            0.66820958413812        0.87192296911986        2.88072639575311
C            1.05954531472947        0.43612741860869        1.71672759086716
C            2.41804967831785        0.29035171090896        1.25501460956269
C            2.68809895536502       -0.22092255884395       -0.01545443318210
C            3.99112613024783       -0.33412271952337       -0.45249572982205
C            5.04440266444505        0.06258065306036        0.37031986767095
N            6.37367866490440       -0.04069886190977       -0.08587606335529
C            7.15884287593416        1.10432210350156       -0.25844027886419
C            6.67514796402940        2.38335645976727       -0.01049818141682
C            7.47884528517549        3.49749701188342       -0.20018917481087
C            8.77540315914906        3.35510308764210       -0.65204691801600
C            9.26384385060502        2.08777190206399       -0.93441556531427
C            8.46555166475773        0.97409687175173       -0.74776123121893
O            9.01229739228351       -0.24319463212766       -1.08139820475969
C            8.22823016520280       -1.35875451360294       -0.90410239601650
C            8.79475838086781       -2.57844711664973       -1.22623625755858
C            8.07921483000378       -3.75293637227046       -1.04398212676031
C            6.80297910713318       -3.69670880892339       -0.52073243491570
C            6.23008170671378       -2.47553957665720       -0.19864946638469
C            6.92055043720362       -1.28735167270770       -0.40578665329069
C            4.77408629054892        0.56594982191072        1.64344175179535
C            3.47301797952830        0.67844292830790        2.08400441555434
O            0.00241375690744        0.13330002856844        0.92388250832913
C           -2.67892455189665       -0.17617736791307       -0.04420969022387
C           -3.98037149891743       -0.28511494008319       -0.48719988680527
H           -8.47633661198654       -4.64288225015399       -1.58112617340589
H           -6.16768441788281       -4.56921276047683       -0.68373418834370
H           -5.18694987300589       -2.44179017360438        0.01667019038686
H           -9.79136775972564       -2.53701621346834       -1.71632706330878
H          -10.32226650693342        1.94868868059064       -1.09868917829764
H           -9.48039574882353        4.20646560598287       -0.48643837300039
H           -7.12734680518749        4.45859188762395        0.25106250242679
H           -5.67322223579744        2.50209819640683        0.41517649394816
H           -5.59655578902988        0.76347600745084        2.29856962880460
H           -3.25410496127318        0.96130544433722        3.09104526160107
H            1.87236455060846       -0.51731649110422       -0.65738509655158
H            4.20318177746045       -0.72145211372990       -1.43787741869730
H            5.65886833829162        2.51311468468298        0.32608116226447
H            7.07649874656004        4.47743782286724        0.00595840290798
H            9.40658161173546        4.21746004292858       -0.79805268981079
H           10.26504437049032        1.94073213470574       -1.30813851191611
H            9.80128331179119       -2.58715676108986       -1.61420613017408
H            8.52862206304990       -4.69923634386331       -1.30067937877732
H            6.24108908494813       -4.60275654723094       -0.35322289970176
H            5.23863669049712       -2.44744115713927        0.22511594290433
H            5.59283148460998        0.86160024380479        2.28196686955811
H            3.24750589678617        1.06141677079253        3.06639180973167
H           -1.85958967747229       -0.43218482779394       -0.69881936871084
H           -4.18654514420418       -0.62713185688055       -1.49042093546404
