  69
       -117.55496541
 C         -8.8884202773       -3.0418895885        1.0960351419
 C         -7.5765130648       -3.0020136335        1.5223247305
 C         -6.7341225853       -1.9825512426        1.1055465294
 C         -7.1942140416       -0.9775180996        0.2640578805
 C         -8.5165901829       -1.0490537201       -0.1932815648
 C         -9.3534670606       -2.0662010624        0.2273577182
 O         -9.0394160122       -0.1439015564       -1.0818693668
 C         -8.2128537105        0.8561597755       -1.5278174397
 C         -8.7516478944        1.7566899560       -2.4281269641
 C         -7.9921206054        2.8178521593       -2.8973040250
 C         -6.6994952752        2.9810847677       -2.4424204716
 C         -6.1536111507        2.0789903688       -1.5418635143
 C         -6.8884038774        0.9898730565       -1.0902614774
 N         -6.3703383452        0.0625886626       -0.1803914964
 C         -5.0400773475        0.1581524388        0.2665980376
 C         -4.7672120198        0.3292965802        1.6246802191
 C         -3.4654333157        0.4055687549        2.0680260953
 C         -2.4108028670        0.3123386558        1.1575436102
 C         -1.0531056335        0.3711412407        1.6372106736
 N         -0.6625130678        0.5240857378        2.8709427488
 N          0.6746090937        0.5045489269        2.8721738568
 C          1.0626691680        0.3393050078        1.6392398908
 C          2.4184982156        0.2395495480        1.1612597853
 C          2.6851947816        0.0744953747       -0.1983096454
 C          3.9865778654       -0.0363007668       -0.6387316874
 C          5.0427247973        0.0122299357        0.2703668681
 N          6.3681810089       -0.1148861461       -0.1823406262
 C          7.2944422968        0.9145039799        0.0178053103
 C          6.9497988604        2.1191967809        0.6177864511
 C          7.8926557714        3.1203156206        0.7954538580
 C          9.1918172219        2.9403122045        0.3660649790
 C          9.5433394755        1.7578186266       -0.2670991969
 C          8.6061270071        0.7575571193       -0.4491746058
 O          9.0217595358       -0.3659210708       -1.1182751654
 C          8.1025504970       -1.3659912525       -1.3092626165
 C          8.5399659230       -2.4985051490       -1.9712381684
 C          7.6816522312       -3.5691611130       -2.1705706945
 C          6.3921503989       -3.5051505321       -1.6832641465
 C          5.9480538591       -2.3706539847       -1.0211820478
 C          6.7832653593       -1.2742275873       -0.8465488198
 C          4.7744891568        0.1820525298        1.6294745394
 C          3.4751798214        0.2963214666        2.0723199225
 O          0.0039812019        0.2489345584        0.7983755673
 C         -2.6820679081        0.1502593951       -0.2015056126
 C         -3.9861034622        0.0737381461       -0.6420994267
 H         -9.5490937880       -3.8296536865        1.4212348929
 H         -7.1917467206       -3.7658890258        2.1800717645
 H         -5.7064999226       -1.9760359567        1.4330306854
 H        -10.3659224549       -2.0789942091       -0.1429478569
 H         -9.7722359105        1.6121554511       -2.7442407823
 H         -8.4196217654        3.5132527632       -3.6019228476
 H         -6.1026941792        3.8143476568       -2.7798658249
 H         -5.1490269591        2.2314837888       -1.1798220312
 H         -5.5872903059        0.4058336012        2.3228153745
 H         -3.2364630368        0.5406389278        3.1127673922
 H          1.8682673468        0.0409995972       -0.9031607853
 H          4.1979332344       -0.1556569914       -1.6910660276
 H          5.9341191071        2.2829044812        0.9418703164
 H          7.5967486415        4.0431049667        1.2699441632
 H          9.9301477538        3.7134374280        0.5068671965
 H         10.5430099824        1.5922823609       -0.6352637762
 H          9.5605193431       -2.5238990557       -2.3173845771
 H          8.0302423467       -4.4467498876       -2.6912137199
 H          5.7183886204       -4.3386659584       -1.8087574679
 H          4.9439121273       -2.3443669332       -0.6279276090
 H          5.5945446647        0.2100891394        2.3313087661
 H          3.2493499068        0.4179271309        3.1194021795
 H         -1.8659921575        0.0737496947       -0.9041145899
 H         -4.1999097971       -0.0647744735       -1.6916080329
