  107
       -133.55435503
 C         -3.6985754354        4.5514510753       -0.9379911468
 C         -3.3973479266        3.3257238807       -0.0622498282
 C         -4.5326022901        2.3169625926       -0.2571444802
 C         -3.3955006794        3.7502790550        1.4172917732
 C         -2.0307036961        2.7591456640       -0.3826550705
 C         -0.9238634160        3.5873932727       -0.3864735501
 C          0.3556847512        3.1159235881       -0.5481108680
 C          0.6340256419        1.6731831068       -0.6788435811
 C         -0.5378010818        0.7425044786       -1.0476869194
 C         -0.6711089861        0.6109738335       -2.6224140812
 C         -1.6563789650       -0.4598088426       -3.1166528401
 C          0.6425493085        0.3909201554       -3.3947419327
 C         -1.1906989957        1.9634803236       -3.1534370231
 C          0.0983610804       -0.3412467133        0.0015079904
 C         -0.8333914581       -1.2266577375        0.9679664665
 C         -0.0802415104       -2.4088200398        1.7497738680
 C          0.2489018627       -3.6975644679        0.9760513684
 C          1.2431981653       -1.9435887620        2.3659847594
 C         -1.0072911723       -2.8713417214        2.8940162288
 C         -1.3600348681       -0.3990009060        2.1159696583
 C         -2.6477394822       -0.2535761920        2.4405606292
 C         -3.7090261639       -0.8712907227        1.6873116740
 C         -3.4247905460       -1.6369428759        0.6297980037
 C         -4.5344500190       -2.3360557731       -0.1443659515
 C         -4.0282539852       -3.2261358878       -1.2831095794
 C         -5.4593660398       -1.2742990734       -0.7542877507
 C         -5.3420305201       -3.2191846627        0.8169758606
 C         -2.0151691561       -1.8046989592        0.1376136452
 C          1.0707271448       -1.2046497040       -0.7789208698
 C          0.6032714232       -2.2548617141       -1.5648644957
 C          1.4121696410       -2.9801671627       -2.4239129769
 C          2.7455447286       -2.6306132413       -2.5570639757
 C          3.2542962131       -1.6216214643       -1.7703313547
 C          2.4551389885       -0.9431949743       -0.8391871234
 N          3.0562193306       -0.0377227959        0.0118596406
 C          4.4594821679        0.1170993804        0.0241220601
 C          5.3055312602       -0.9491647737        0.3188899628
 C          6.6750057194       -0.7628166494        0.3331900295
 C          7.2138310505        0.4842155262        0.0607023011
 C          6.3741909480        1.5502451283       -0.2218240469
 C          5.0045134965        1.3705496045       -0.2394551870
 C          2.3263654807        0.6518063060        0.9567342246
 C          2.9541596914        1.1151084595        2.0926303980
 C          2.2774741534        1.8485352071        3.0573121127
 C          0.9217521899        2.1379502715        2.8451794805
 C          0.2525300794        1.6683574533        1.7612901166
 C          0.8866228967        0.8802557747        0.6652791673
 C         -1.8830728380        1.2764840480       -0.5102371508
 H         -3.0000399140        5.3581658833       -0.7447224941
 H         -4.7020991728        4.9179004630       -0.7335432069
 H         -3.6354739203        4.2885121703       -1.9913387139
 H         -4.6141407624        2.0230615692       -1.2998866083
 H         -4.3766845614        1.4377895064        0.3558278378
 H         -5.4757818338        2.7762890264        0.0320452977
 H         -3.2409324424        2.8792570180        2.0475416333
 H         -2.5992055227        4.4625253344        1.6093584844
 H         -4.3452679984        4.2091834904        1.6834275014
 H         -1.0564063317        4.6531861412       -0.2669033457
 H          1.1954673993        3.7984844538       -0.5442977446
 H          1.4956028141        1.5127856068       -1.3235633705
 H         -1.8343804840       -0.3062759961       -4.1806580444
 H         -2.6208609437       -0.3942858718       -2.6232487320
 H         -1.2459700584       -1.4542216091       -2.9994895519
 H          1.3035824711        1.2467333350       -3.2992593305
 H          0.4026053197        0.2946537489       -4.4531450137
 H          1.1715259603       -0.5007698193       -3.0998186232
 H         -2.1974064124        2.1807836710       -2.8217957103
 H         -1.1941665690        1.9407451657       -4.2423936875
 H         -0.5424771007        2.7689281545       -2.8316801147
 H         -0.6370144303       -4.1965692126        0.5949950741
 H          0.7200393971       -4.3881294760        1.6741328264
 H          0.9426218628       -3.5315079715        0.1658238996
 H          1.1572082872       -0.9878959618        2.8666597513
 H          1.5730959027       -2.6768525982        3.1022656569
 H          2.0124518056       -1.8704775102        1.6070597224
 H         -0.6458874019       -3.8135955746        3.3022435888
 H         -2.0174152737       -3.0197255331        2.5310197473
 H         -1.0328094926       -2.1519128941        3.7038858158
 H         -0.6183605099        0.0053669616        2.7796537852
 H         -2.9242193776        0.3178877550        3.3198216653
 H         -4.7191173300       -0.7263275039        2.0394319892
 H         -3.4330665763       -4.0509208169       -0.9027417929
 H         -3.4417783457       -2.6567754907       -1.9938966074
 H         -4.8807383579       -3.6495480231       -1.8096319906
 H         -6.2851105867       -1.7479072707       -1.2800371198
 H         -5.8651699604       -0.6306917735        0.0175049096
 H         -4.9076525456       -0.6617201414       -1.4602258171
 H         -5.7967712227       -2.6257589255        1.6027620528
 H         -4.6961907318       -3.9621514128        1.2794353182
 H         -6.1319545980       -3.7375254229        0.2783997760
 H         -1.8629606240       -2.8710684583       -0.0004813760
 H         -1.9901765212       -1.3470699646       -0.8463696784
 H         -0.4262279509       -2.5428467477       -1.5036649975
 H          0.9975438205       -3.7931179888       -3.0028038033
 H          3.3852617523       -3.1425977399       -3.2607286304
 H          4.2905331977       -1.3487600616       -1.8738823029
 H          4.8815070625       -1.9174229319        0.5368954123
 H          7.3250117311       -1.5935452501        0.5642702173
 H          8.2834132727        0.6259415736        0.0726854501
 H          6.7897039234        2.5242733393       -0.4323379370
 H          4.3424180050        2.1966725541       -0.4489875641
 H          3.9997344401        0.8955882209        2.2423215495
 H          2.7897045276        2.2007202363        3.9385356149
 H          0.3961415986        2.7493497283        3.5683009406
 H         -0.7578850454        1.9952842062        1.6168038793
 H         -2.0638972641        0.8555761361        0.4766121508
 H         -2.6918782622        0.8995179450       -1.1315697619
