  62
        -95.23965724
 C          2.5077605000       -3.6184549921        1.4670116379
 C          1.2240551074       -3.6907168225        0.9551696461
 C          0.6882160865       -2.6080695336        0.2648736336
 C         -0.6877742145       -2.6087204836       -0.2543791745
 C         -1.2187246227       -3.6885487790       -0.9529025474
 C         -2.5012401412       -3.6168693428       -1.4677757138
 C         -3.2690169409       -2.4779419649       -1.3017246801
 C         -2.7573706197       -1.4018771400       -0.5811456974
 N         -3.5062855874       -0.2352382728       -0.3870584455
 C         -4.8151611791       -0.1656686821        0.0501072554
 C         -5.6908778641       -1.1858598084        0.3928695336
 C         -6.9538725450       -0.8340824097        0.8293480903
 C         -7.3426183254        0.4992660555        0.9351803422
 C         -6.4663820111        1.5195350927        0.6242931313
 C         -5.1912038228        1.1907780460        0.1841732393
 C         -4.0449961307        1.9722307104       -0.1873269934
 C         -3.8034548836        3.3381317927       -0.2565484806
 C         -2.5595129847        3.7707348875       -0.6702865252
 C         -1.5713248450        2.8603508682       -1.0379471180
 C         -1.7915364830        1.4975893625       -0.9828761597
 C         -3.0267856471        1.0540756188       -0.5310231427
 C         -1.4743774935       -1.4807462193       -0.0547605148
 C          1.4712924016       -1.4768764582        0.0694666324
 C          2.7564842381       -1.3985017337        0.5904289622
 N          3.5053286509       -0.2320900726        0.3949351532
 C          4.8113795345       -0.1657420318       -0.0515925816
 C          5.6822336976       -1.1880522432       -0.4001245477
 C          6.9420970409       -0.8394046777       -0.8477055734
 C          7.3329428664        0.4929632528       -0.9579119951
 C          6.4614676661        1.5153474309       -0.6409342427
 C          5.1891565391        1.1896898101       -0.1904305533
 C          4.0467160724        1.9739192908        0.1866973580
 C          3.8081595002        3.3404207514        0.2532871718
 C          2.5672127933        3.7765098076        0.6723557814
 C          1.5794318868        2.8689443285        1.0478430631
 C          1.7968619668        1.5055752760        0.9957189960
 C          3.0288554183        1.0583962406        0.5385214941
 C          3.2725187225       -2.4770453071        1.3042134367
 H          2.9131527325       -4.4554086003        2.0163621632
 H          0.6250149568       -4.5750512553        1.1124031739
 H         -0.6168531274       -4.5703356928       -1.1136014122
 H         -2.9028552094       -4.4518500369       -2.0228717804
 H         -4.2530254781       -2.4119976810       -1.7399081370
 H         -5.3950683145       -2.2224209042        0.3366812296
 H         -7.6543668500       -1.6113071151        1.0976200335
 H         -8.3405279929        0.7327894708        1.2752528492
 H         -6.7601932723        2.5535834741        0.7231369813
 H         -4.5769605542        4.0431818836        0.0084149709
 H         -2.3479555710        4.8285361610       -0.7214079547
 H         -0.6110674402        3.2250053416       -1.3720320010
 H         -1.0255798316        0.8054781063       -1.2977404643
 H         -1.0970914699       -0.6624288425        0.5395908457
 H          1.0899814543       -0.6561434343       -0.5189067228
 H          5.3847455085       -2.2239973140       -0.3411085011
 H          7.6388979221       -1.6185410151       -1.1200084024
 H          8.3287721557        0.7240207797       -1.3059808633
 H          6.7562294032        2.5487475067       -0.7444612313
 H          4.5817140080        4.0431263246       -0.0175512476
 H          2.3586795969        4.8347702094        0.7238768826
 H          0.6215066387        3.2364430490        1.3861801313
 H          1.0310592950        0.8159893048        1.3166473279
 H          4.2578052381       -2.4113378485        1.7395069917
