55
 energy: -88.999153299718 gnorm: 0.000166705568 xtb: 6.7.1 (edcfbbe)
N            0.15889884733141       -5.97632232963428       -0.07689419424873
C           -0.46506393777765       -5.00444187656643       -0.06394343482069
C           -1.20340773630866       -3.82542582288930       -0.04778372425644
C           -2.62593168158408       -3.86500475263032       -0.04543337274614
C           -3.36577078980031       -2.72293022924497       -0.02967155342367
C           -2.70618864536641       -1.46407366349353       -0.01513161117292
C           -1.26867270573443       -1.43862426361065       -0.01727151073671
C           -0.52901825038992       -2.57237946498502       -0.03319414200525
C           -0.77371829777585        0.00417275376165        0.00023567169322
C           -2.08766117403796        0.76527194143813        0.01105378786207
C           -2.27270857547893        2.10699367006233        0.02711562811600
C           -3.60350645870234        2.61147799198550        0.03478863346797
C           -3.82337207982233        3.98558978334448        0.05092608071268
N           -4.00081819920705        5.12658040885945        0.06387269051944
C           -4.70467999564547        1.71063314405182        0.02572519673359
C           -4.51639468246576        0.36253933541690        0.00963567758757
C           -3.19335355401981       -0.15578483607342        0.00159359363420
C            0.01953771307728        0.24266246993771        1.25426280009241
C           -0.62438452676986        0.20990485565679        2.48258608646879
C            0.07732661356660        0.37106001917536        3.66226827128302
C            1.45146245112140        0.56223159554050        3.62092199094403
C            2.11167974693346        0.59794588350258        2.41235607326362
C            1.40718391168170        0.44153501338529        1.21202791358460
N            2.07286600729445        0.49306786202118        0.00341035645900
C            3.49255583802833        0.63028786939536        0.00537848670112
C            4.28915316234786       -0.50582818064958        0.04485733693019
C            5.66687551697346       -0.37438053526176        0.04745876647189
C            6.24569674954514        0.88328290702293        0.01068261921155
C            5.44749337783102        2.01494098745129       -0.02855069992039
C            4.06929809897896        1.89335196927206       -0.03111670667211
C            1.40578261630768        0.46675896852165       -1.20522723994084
C            2.10956754954256        0.63779212701665       -2.40397240131403
C            1.44688963345203        0.63014317415705       -3.61170627854155
C            0.07118920185720        0.45087810676335       -3.65405336443526
C           -0.62900276556568        0.26862440599551       -2.47655304568024
C            0.01738179101265        0.27272977818533       -1.24909738007595
H           -3.10575499750093       -4.83298271586133       -0.05663061481692
H           -4.44446184604634       -2.75961036547500       -0.02806844769228
H            0.55177991339363       -2.55423246598818       -0.03530527132591
H           -1.44332286639978        2.79980937465756        0.03419920963439
H           -5.70117232951354        2.12814731927955        0.03194329534030
H           -5.35571207353545       -0.31596618857826        0.00280657205047
H           -1.69230480763122        0.05206216357472        2.50674713903876
H           -0.44067885824092        0.34400729103973        4.60792667469942
H            2.01013421286541        0.68488306179842        4.53603095108412
H            3.17962538646857        0.75006289059656        2.38810797813248
H            3.82705462270888       -1.48123820353129        0.07363750488721
H            6.28737443428289       -1.25680444698141        0.07807833641811
H            7.32034760846318        0.98216659399963        0.01270132715105
H            5.89752098723701        2.99554043830352       -0.05696656756320
H            3.43580306830271        2.76739785341147       -0.06137650614690
H            3.17917883314232        0.77738311157357       -2.37949663818665
H            2.00507470683842        0.76445772906017       -4.52547577521798
H           -0.44882663055736        0.44669836117023       -4.59898274088523
H           -1.69761739106569        0.11572097098480       -2.50186405401568
