65
 energy: -101.571262569436 gnorm: 0.000053813891 xtb: 6.7.1 (edcfbbe)
N          -10.42707414446886        0.00953960977998        0.05645805147622
C           -9.27545542903417        0.02609203258773        0.05775745888207
C           -7.87225638680728        0.04597784625706        0.05880258825953
C           -7.15975516274741       -0.27308171407701        1.22421995634264
C           -5.78618492137756       -0.26452439367573        1.21620189840975
C           -5.06500259444021        0.08286428842630        0.06018147599766
C           -3.61412253330996        0.10019587593850        0.06103195322353
C           -2.88551581277107       -1.04478265959855        0.51531534801883
C           -3.52926761439188       -2.23684867566392        0.86501218202796
C           -2.82941124666622       -3.31350245330836        1.39866345407188
C           -1.46782604665491       -3.20980892196134        1.60397406502078
C           -0.79307926553465       -2.06316215416933        1.20184634650088
C           -1.46081170550791       -0.99621290239150        0.58823293917835
C           -0.75868922865272        0.13484163815677        0.07138778476184
C            0.69804407436601        0.15230430743960        0.07690447666019
C            1.39414444144813        1.22980529607838        0.66128004584347
C            2.76908148202556        1.28349412495735        0.69847934763806
C            3.48279420825722        0.24468558871513        0.10863008413499
C            2.80647642370030       -0.85664594652671       -0.47238884030117
C            1.42462880928496       -0.90309052112961       -0.48235352275135
C            3.82647012384801       -1.75508958826439       -0.94381660684676
C            3.79317123112530       -2.97778995232798       -1.59962914425308
C            4.99117573865654       -3.58294798202609       -1.92992548624687
C            6.20816697294041       -2.97761439203559       -1.62511097997743
C            6.26590134449691       -1.76061895523074       -0.97088730822088
C            5.06661770193841       -1.15939931237903       -0.61678347984123
N            4.84007624416659        0.04910160393512        0.01614645981781
C            5.83071557394412        0.93177475159211        0.47896970455430
C            6.84493821620281        0.46705390566037        1.31112020075722
C            7.82007180616772        1.33851352898124        1.76108159394201
C            7.78647390230142        2.67432753925335        1.39475658553925
C            6.77408664492264        3.13838058555277        0.57067465553747
C            5.79927406578415        2.27293794614046        0.10836626817758
C           -1.48478966733574        1.24740534933822       -0.45225708007982
C           -0.83755696818504        2.32873821405629       -1.06237564777848
C           -1.53649515560985        3.45693721276563       -1.47497156372109
C           -2.90179842442101        3.52839791113011       -1.28051271603164
C           -3.58000392722427        2.43694904069455       -0.74921063312354
C           -2.91068605281492        1.26151397869443       -0.39098495670154
C           -5.79381861376295        0.41158138462151       -1.09646454281495
C           -7.16715771400089        0.38376718303189       -1.10584138801253
H           -7.70293821377147       -0.51954004894773        2.12554534446782
H           -5.24492149816629       -0.48667196902824        2.12432622642706
H           -4.59369688073880       -2.33092262179101        0.71389187831959
H           -3.35879593453605       -4.21712418588463        1.66229180275575
H           -0.91845084591766       -4.02026614617790        2.06002561085233
H            0.27054374693730       -1.99518677034754        1.37107063220884
H            0.82167144659792        2.01452667827135        1.13362682000488
H            3.27599161876761        2.10190002764061        1.18693276886079
H            0.90695702888994       -1.72588004850641       -0.95191035133304
H            2.85009187714384       -3.44021650658252       -1.84955809471952
H            4.98793111924190       -4.53495899980278       -2.43999655920765
H            7.12776673912864       -3.46811290690840       -1.90884983640304
H            7.21393391234117       -1.29346887562873       -0.75181133457668
H            6.85531618185304       -0.57037629049839        1.61079819651442
H            8.60512971146788        0.97387884953386        2.40690674782811
H            8.54784167074343        3.35193701638712        1.75072177392098
H            6.74649299281113        4.17802127589152        0.27958687270145
H            5.01978176021097        2.62600355241108       -0.55035227054211
H            0.22913776450787        2.28597624186836       -1.21923756856191
H           -1.00373954120341        4.27898131959224       -1.92998161676176
H           -3.45067422739741        4.41817876003971       -1.55128140396391
H           -4.64761726073635        2.50581170791995       -0.60759917986340
H           -5.25780011091230        0.64693564930875       -2.00434148410909
H           -7.71577262182256        0.61562613184599       -2.00776321008491
