  65
       -101.52812011
 N        -10.4216230500       -0.0054003223        0.0703113186
 C         -9.2718592507        0.0139743600        0.0688647955
 C         -7.8665795062        0.0363291030        0.0660097763
 C         -7.1511960410       -0.2833891662        1.2275157671
 C         -5.7774254690       -0.2706781442        1.2154997851
 C         -5.0622263971        0.0805418775        0.0581609148
 C         -3.6116620475        0.1020731005        0.0557857155
 C         -2.8812116244       -1.0408388940        0.5101486506
 C         -3.5227260743       -2.2331943189        0.8599996486
 C         -2.8198505941       -3.3092587875        1.3913599103
 C         -1.4589319988       -3.2037905014        1.5940942992
 C         -0.7864635247       -2.0552256461        1.1926753867
 C         -1.4572122288       -0.9890386093        0.5827985950
 C         -0.7590356461        0.1456769352        0.0689935364
 C          0.6966163300        0.1644335961        0.0738999804
 C          1.3936895640        1.2419425319        0.6557752064
 C          2.7687558375        1.2930949707        0.6946029436
 C          3.4806971543        0.2511905443        0.1095155056
 C          2.8029752829       -0.8495131771       -0.4695042755
 C          1.4215635354       -0.8931204396       -0.4820244425
 C          3.8201507256       -1.7520143139       -0.9368448296
 C          3.7823658585       -2.9745187867       -1.5919964341
 C          4.9778951949       -3.5837508555       -1.9211137090
 C          6.1964080217       -2.9823220943       -1.6162421727
 C          6.2584137869       -1.7658341221       -0.9622505233
 C          5.0614000163       -1.1605226526       -0.6092277565
 N          4.8380634650        0.0500130881        0.0212079298
 C          5.8306721406        0.9278005122        0.4840950169
 C          6.8511676271        0.4565710407        1.3046768001
 C          7.8305040817        1.3236208634        1.7527143287
 C          7.7954404036        2.6615853905        1.3960671818
 C          6.7766425021        3.1325309451        0.5844988065
 C          5.7976338861        2.2716101722        0.1239729235
 C         -1.4871557289        1.2568857790       -0.4542284704
 C         -0.8419180521        2.3408140186       -1.0600575773
 C         -1.5450861585        3.4643868785       -1.4792378205
 C         -2.9111459787        3.5282490691       -1.2938608823
 C         -3.5866467589        2.4349350458       -0.7624559536
 C         -2.9128506792        1.2648532566       -0.3975894435
 C         -5.7942868479        0.4082040470       -1.0954471032
 C         -7.1678531539        0.3778306110       -1.0995320885
 H         -7.6902160482       -0.5337764299        2.1297095696
 H         -5.2311596186       -0.4924124660        2.1206997195
 H         -4.5867235491       -2.3288015392        0.7088225735
 H         -3.3470465992       -4.2136250048        1.6548938170
 H         -0.9073824193       -4.0135513695        2.0477352431
 H          0.2768768609       -1.9848364801        1.3622241026
 H          0.8218517788        2.0281186455        1.1263669044
 H          3.2766798160        2.1113914053        1.1826212162
 H          0.9034115126       -1.7161523188       -0.9504802723
 H          2.8370369657       -3.4319485114       -1.8417859997
 H          4.9718189995       -4.5354778636       -2.4306040726
 H          7.1141873431       -3.4754144204       -1.8996415835
 H          7.2077942190       -1.3003432101       -0.7447479888
 H          6.8614808678       -0.5826644063        1.5982153563
 H          8.6198652076        0.9535435336        2.3896585512
 H          8.5603341525        3.3357607609        1.7499560648
 H          6.7476583738        4.1739721739        0.3010807103
 H          5.0140563684        2.6290384264       -0.5277010910
 H          0.2257733140        2.3030812298       -1.2115888675
 H         -1.0143110705        4.2882313545       -1.9323881266
 H         -3.4631573926        4.4135085361       -1.5713033452
 H         -4.6548491218        2.4985739529       -0.6250469635
 H         -5.2606131080        0.6442864030       -2.0043762419
 H         -7.7197531854        0.6099704632       -1.9988597314
