65
 energy: -101.636974165536 gnorm: 0.000096292429 xtb: 6.7.1 (edcfbbe)
N          -10.70642219263777       -0.08114576047199       -0.14954227743442
C           -9.55823045927025       -0.08971084701704       -0.13681671880042
C           -8.14676063132007       -0.09947549912442       -0.12172558681600
C           -7.44935915161551       -1.13837087462015       -0.74243843378552
C           -6.06924119820295       -1.14033251123558       -0.72633807103171
C           -5.36554880772051       -0.11590158032371       -0.09648726469888
C           -3.88390413922340       -0.12121309305390       -0.08620166028462
C           -3.18130336321223        0.48789951247889       -1.13356069855164
C           -3.84973353122034        1.11668548141538       -2.21752602128608
C           -3.15355923559467        1.70427095859079       -3.22860569490526
C           -1.74335601786608        1.70038241939963       -3.21886347750980
C           -1.06510033625524        1.10929354493229       -2.19775754753135
C           -1.75149772385647        0.48502458660482       -1.12275909093001
C           -1.06321252253214       -0.12573701119406       -0.06650679016198
C            0.41987035150934       -0.12823716469165       -0.05648036492006
C            1.11360910741203       -1.19115498902264       -0.64630033612916
C            2.49350210436665       -1.23943841718655       -0.66236570702761
C            3.18874571943998       -0.19803034206122       -0.06329430015774
C            2.50237455714144        0.89321520390958        0.51893437978026
C            1.11453349812358        0.92185838477868        0.52304936834397
C            3.50879532507378        1.79917528079761        0.99707621146401
C            3.45987642469610        3.01775066565009        1.66243845967044
C            4.64768395430552        3.63324120814269        2.00346251472167
C            5.87343507744690        3.04214608172747        1.70139482416044
C            5.94778152210663        1.83079876048051        1.04082067138575
C            4.75733435148564        1.21734813862960        0.67511157987581
N            4.54912511042787        0.01119290304960        0.03686194743289
C            5.55122472623012       -0.85488282954155       -0.43173074322046
C            5.53978286048753       -2.19873641437115       -0.06996308835623
C            6.52699746662392       -3.04742284185437       -0.53709961282440
C            7.53404885879243       -2.56400493089636       -1.35641474207616
C            7.54889029281448       -1.22549827278980       -1.71346991919927
C            6.56000721024882       -0.37157041853917       -1.25982637289817
C           -1.76828133454381       -0.73399183529420        0.97994988376169
C           -1.09876786556101       -1.35870051584425        2.06527231484785
C           -1.79287119988265       -1.94705091862493        3.07724666017883
C           -3.20311968021076       -1.94795649811302        3.06653873547987
C           -3.88346109603355       -1.35928694177069        2.04535254754239
C           -3.19812058494695       -0.73265426494685        0.97074406966297
C           -6.06851633807124        0.91604291343120        0.52187680046168
C           -7.44855705478377        0.93048325819522        0.51281174895176
H           -7.99638697724365       -1.93211329753262       -1.23016724270051
H           -5.52451035989919       -1.94067639740230       -1.20522452948726
H           -4.93015141255570        1.12041947004052       -2.22536362322486
H           -3.67560071658859        2.17889796017848       -4.04690818711860
H           -1.20789218797636        2.17152378900485       -4.03035333108790
H            0.01498061829921        1.10454380110825       -2.18678752551468
H            0.54695581221562       -1.98966133078056       -1.10354439849247
H            3.01127530247540       -2.05939809401055       -1.13664615287589
H            0.58065038214101        1.74945041048605        0.96654428812994
H            2.51005230888868        3.46828183042010        1.90960858053111
H            4.63215026281384        4.58226117255951        2.51930942644329
H            6.78615762921538        3.54098444539545        1.99370432294604
H            6.90217135230486        1.37423139949596        0.82560295137767
H            4.76404425783041       -2.56767638022235        0.58467725310572
H            6.51354146770685       -4.08944146538733       -0.25297147299139
H            8.30569228029405       -3.22837705859195       -1.71550146861914
H            8.33006791663797       -0.84498022233053       -2.35510949971561
H            6.55680180427918        0.66836869055183       -1.55141838481137
H           -0.01861627450660       -1.35525426712102        2.06979656385757
H           -1.27037130895415       -2.41807837723025        3.89723689928313
H           -3.73787415294051       -2.42034922332162        3.87788367710601
H           -4.96389923932052       -1.36015812049711        2.03789024533444
H           -5.52307858479620        1.71012660293974        1.01031207722847
H           -7.99485423448251        1.73077113262590        0.99056333410476
