65
 energy: -101.637351981088 gnorm: 0.000058071735 xtb: 6.7.1 (edcfbbe)
N          -10.41852516136365        0.00246603198572        0.03645439231760
C           -9.27026287876277        0.01953802111903        0.04338168642802
C           -7.85928246753699        0.04010346878806        0.05153623033446
C           -7.17195598727063        0.35191112526387        1.22697456681151
C           -5.79214485213400        0.36533291438684        1.22891672731127
C           -5.07612156755828        0.07578316391661        0.06819696562354
C           -3.59739221122557        0.09226292350756        0.07716972789352
C           -2.89409695410000       -0.92805178464253        0.73308013749267
C           -3.56221139546699       -2.00662663394495        1.37180414406523
C           -2.86979681667906       -2.97960774320367        2.02457828787210
C           -1.46250543756744       -2.93100936857539        2.08516482702103
C           -0.78352534451116       -1.92604859200804        1.46753397704442
C           -1.46427258108020       -0.90432791357328        0.75355158565369
C           -0.77237331584568        0.12160256049789        0.09209990764767
C            0.70668147689363        0.13709947793289        0.09861410675760
C            1.38876002852009        1.13424361380686        0.80784677729161
C            2.76751885538036        1.19081394063212        0.84331914017373
C            3.47793055470439        0.22890568366989        0.13793347980944
C            2.80560944987339       -0.79700022825060       -0.56678273929948
C            1.41879334662628       -0.83758186435814       -0.58529588339819
C            3.82379354302186       -1.63448753065274       -1.13653757725571
C            3.79080086662476       -2.76996502410499       -1.93620301386848
C            4.98681055445236       -3.33045333417463       -2.33834352656946
C            6.20474724792099       -2.76484100861174       -1.96461790007795
C            6.26302343290283       -1.63635382574388       -1.16922873577331
C            5.06449348429437       -1.08040601159929       -0.74347992625655
N            4.84036014708355        0.04473270658567        0.02476266405103
C            5.83062058987746        0.86837036974585        0.58552280200541
C            5.79699528197913        2.24360285151305        0.37393182350600
C            6.77191929393150        3.05162440863041        0.93016937928283
C            7.78956736349591        2.49711245588697        1.68915619961373
C            7.82653798882675        1.12788206869915        1.89675781528333
C            6.84966278882081        0.31309381231176        1.35372274019238
C           -1.47873442015955        1.13295121119208       -0.57626373846629
C           -0.81144061906144        2.16847424262513       -1.28291586149384
C           -1.50413171745541        3.15983357822354       -1.90722682527349
C           -2.91273566814982        3.17937683852935       -1.86173787146330
C           -3.59198777201501        2.19197606622854       -1.21681620082478
C           -2.90868931346155        1.12727062413569       -0.57103919297754
C           -5.77059138704684       -0.23054912725423       -1.10129210945350
C           -7.15018425663826       -0.25280978293632       -1.11581272539430
H           -7.72687298356559        0.57975120264045        2.12549478944409
H           -5.25621037147660        0.60635123932621        2.13522851164115
H           -4.64080376381402       -2.04525561929651        1.32957871634750
H           -3.39345408857221       -3.79310069843073        2.50561596004326
H           -0.92858125613222       -3.70021361061972        2.62409177293998
H            0.29459968328215       -1.89025078497294        1.51371771743081
H            0.81228510383844        1.87033215216150        1.34967324539346
H            3.27331825290964        1.95652164801729        1.41187672230085
H            0.89788740536514       -1.61346796437010       -1.12685870157116
H            2.84696129928332       -3.19929109187755       -2.23811433474550
H            4.98379762900892       -4.21478819345839       -2.95880578448381
H            7.12413856810498       -3.21724023358245       -2.30722062278850
H            7.21132269090228       -1.19694973523188       -0.89861425281238
H            5.01421319297039        2.66980496757927       -0.23590495561226
H            6.74092457535598        4.11824084270148        0.76248013742107
H            8.55194759606672        3.13027680100906        2.11769527870497
H            8.61566494110915        0.69163271333182        2.49140766776506
H            6.86386358279222       -0.75238313253283        1.52985861372737
H            0.26758393633229        2.15334245199613       -1.31788611041088
H           -0.98080080897718        3.94029877931627       -2.44035967109281
H           -3.44779339597857        3.98229815557196       -2.34795404359206
H           -4.67154687107680        2.20780231914053       -1.18653069462385
H           -5.21770694678978       -0.45766616708136       -2.00099962753936
H           -7.68829598985358       -0.49468337268930       -2.02085169342283
