65
 energy: -106.588506372062 gnorm: 0.000046709943 xtb: 6.7.1 (edcfbbe)
C           -5.27049784284290        4.23788293413537        0.88931002976834
C           -4.05744032776086        3.69573067756288        1.30622348930483
C           -3.72107164193413        2.38310167746091        1.03291437689032
C           -4.63806402582681        1.61137767860571        0.33475204327741
C           -5.85823118375139        2.16157940361561       -0.11745532303539
C           -6.17452634652976        3.48280730939827        0.16903034533605
C           -6.53219071485738        1.12211170313217       -0.84559401381776
C           -7.75822409500324        1.05506002130684       -1.49393648795682
C           -8.12765362503790       -0.13542257425197       -2.08742715050118
C           -7.29972012050994       -1.25351368555347       -2.02411828489496
C           -6.07501833830371       -1.21048404407780       -1.38459294255259
C           -5.68627226381216       -0.00881887738740       -0.81136532496622
N           -4.54272382223850        0.29833257927816       -0.09312614514962
C           -3.48122613322650       -0.56927499588538        0.16523378849005
C           -2.91614045589165       -1.31390363285803       -0.87163974755395
C           -1.86845322649403       -2.17560964442835       -0.61002498891710
C           -1.38455054698659       -2.28994755679115        0.67955703812514
C           -1.93144975384328       -1.55696441843665        1.71593416346784
C           -2.98460524884092       -0.69946048624200        1.46342306899406
S            0.01658983296456       -3.36421066645959        1.00140032071333
O            0.02254279038615       -4.42162062380142        0.02602858085693
O            0.01969619208319       -3.70900467744796        2.39803438052243
C            1.40444178675748       -2.27432945239476        0.67397261135919
C            1.98221997716230       -2.26425428421381       -0.58130844608191
C            3.02160096079897       -1.39364889449553       -0.84722049311332
C            3.48384281235810       -0.53511985352141        0.15160323536973
C            2.89212191831054       -0.55950597736068        1.41597057761506
C            1.84812266963331       -1.42692613789639        1.67199799321353
N            4.53853769386677        0.33980821768617       -0.10994648285342
C            4.56654496800479        1.69000471228271        0.19393305357241
C            3.57859756991386        2.49390831256684        0.74308433606345
C            3.85867078756099        3.83712860236472        0.91099924930932
C            5.08592241979114        4.37705138843794        0.53471385880825
C            6.06234514462549        3.58712062755125       -0.03871323042146
C            5.80349463793210        2.23480172636609       -0.21748437533330
C            6.55844762639298        1.15368913570771       -0.78855843095282
C            7.83229985660373        1.06585726046770       -1.33410334104199
C            8.27697810249274       -0.16275063545217       -1.77989881049682
C            7.47564490349561       -1.29650694534641       -1.67007051787488
C            6.20451540426821       -1.23339881181759       -1.13067570251733
C            5.74184001892238        0.00378856891597       -0.70758747842053
H           -5.49794802436791        5.26646561219733        1.12577775643599
H           -3.36151301929295        4.31537475459943        1.85206695656947
H           -2.76864813042926        1.98039593327626        1.34323538771793
H           -7.10674043854970        3.90738383555306       -0.17104043190675
H           -8.40747466357440        1.91676995443814       -1.52516499822097
H           -9.07554476710335       -0.20885321643766       -2.59902462149490
H           -7.62306503102135       -2.17697825010550       -2.48088110050108
H           -5.45281892059167       -2.09031228075053       -1.32306343156017
H           -3.29330439763467       -1.19891285512380       -1.87621746437376
H           -1.42337294367533       -2.77277929954800       -1.39000054146516
H           -1.54292979131100       -1.69343394814770        2.71276306704023
H           -3.44445644729204       -0.14455903770300        2.26676601520099
H            1.61462365878764       -2.94864582460200       -1.32942943107134
H            3.47129892535181       -1.36040627827820       -1.82768577164856
H            3.27233273313059        0.08536275006065        2.19334547963631
H            1.38924265210902       -1.48110331186216        2.64646022822686
H            2.61567219112973        2.09127070056854        1.01928232007337
H            3.10661830517802        4.48260597078079        1.33993978702357
H            5.26756511983638        5.43056732186206        0.68551881220560
H            7.00678200622851        4.00806616266021       -0.34822037096452
H            8.45969434652483        1.94165505602531       -1.40048635438903
H            9.26314539372878       -0.25310507569127       -2.20992515988406
H            7.85688646763909       -2.24798584495471       -2.00963009834109
H            5.60227184868492       -2.12348493145432       -1.03038972093441
