65
 energy: -106.483538295635 gnorm: 0.000095506684 xtb: 6.7.1 (edcfbbe)
C           -4.85905817976832        4.34793090144723        0.42810763621074
C           -3.65984554529599        3.80079154142202        0.88183450560126
C           -3.39014537732379        2.44862766541976        0.74413016041114
C           -4.35578145857768        1.65172876597125        0.14705919944662
C           -5.56400460421296        2.20816419611467       -0.35266847346005
C           -5.81410941660519        3.56509969545797       -0.19706310208794
C           -6.28781635779786        1.13076730412386       -0.96067634247198
C           -7.51825576140354        1.04173864439133       -1.59786226361450
C           -7.94545267392928       -0.19692102147915       -2.04476270781167
C           -7.17332146975357       -1.34077996594264       -1.85038728234799
C           -5.93958517922740       -1.27655140132344       -1.22260707300135
C           -5.49085246724475       -0.03422632639584       -0.79932042656405
N           -4.32854980880247        0.29892868461583       -0.12964553329231
C           -3.31404859519677       -0.58262296391905        0.22507446622537
C           -2.81307206803061       -1.50555249857296       -0.71598963330012
C           -1.82430975304879       -2.38363292552655       -0.35623979510254
C           -1.33334745087999       -2.38852873397151        0.95315335191163
C           -1.80927497588510       -1.46292729771534        1.88853503641517
C           -2.78724764106819       -0.57173259198661        1.53335542853489
S            0.01546779589613       -3.45086450314437        1.38464402562215
O            0.02747386964398       -4.59067232092933        0.50260952130039
O            0.01014636359518       -3.67325949707811        2.80864547422502
C            1.35352585031630       -2.37023841452655        0.96563667807441
C            1.85801127317527       -2.36085842791942       -0.33868555645283
C            2.83859737794483       -1.47036175290454       -0.68972244485549
C            3.31779247462375       -0.53923804724631        0.25488288966932
C            2.77680439822708       -0.53293536889200        1.55754336794477
C            1.80704422083323       -1.43635206315646        1.90407045788987
N            4.32504105340598        0.35378384318678       -0.09108034463687
C            4.33448154245990        1.70728490251089        0.18374695415766
C            3.35559049262977        2.49399699214231        0.77266600936968
C            3.60917421725496        3.84924727697269        0.91114097025746
C            4.80552449753196        4.40938505736555        0.46573780823893
C            5.77372915102501        3.63674124135543       -0.15181210808026
C            5.54002024969534        2.27691759721458       -0.30781154142010
C            6.28081634429769        1.20720693943667       -0.90869200606055
C            7.51681957244045        1.13162756026042       -1.53682739053533
C            7.96225367389226       -0.10280270358927       -1.97757845498842
C            7.20281191860516       -1.25554786674877       -1.78568591598639
C            5.96367238965206       -1.20473116071859       -1.16734399641173
C            5.49652752899011        0.03311743750920       -0.75094500213832
H           -5.03736595907594        5.40496234954380        0.55726792510250
H           -2.92552295035088        4.44254534613052        1.34381801839608
H           -2.45068605486806        2.03469826646765        1.07662901350062
H           -6.73283638250371        3.99798925548027       -0.56189289855466
H           -8.12946773578169        1.92072591121950       -1.73377929917768
H           -8.90003741049474       -0.28426156375477       -2.54166190641801
H           -7.54484663750119       -2.29559218198944       -2.18887296206108
H           -5.35839388927251       -2.16966587603449       -1.05381333959298
H           -3.19123300540560       -1.48349316531034       -1.72693480709566
H           -1.42330280448009       -3.09946038428145       -1.05578708869724
H           -1.41979605733658       -1.50530789651866        2.89291915714260
H           -3.20629791989749        0.10677409281911        2.26114925798961
H            1.47388866139947       -3.08323104780480       -1.04097093305684
H            3.22672391258809       -1.44480571656314       -1.69679336739255
H            3.17921815374277        0.15214041961640        2.28854717375120
H            1.40754702367634       -1.48193174250232        2.90437278082178
H            2.41827067084063        2.07011775631132        1.09856965812029
H            2.86438201600431        4.48313984746155        1.36717265286384
H            4.97111216005733        5.46843787242583        0.59531076762685
H            6.69021327012443        4.07950378459495       -0.51038629398638
H            8.11824851125098        2.01765450215378       -1.67056473755459
H            8.92136827597619       -0.17970775186184       -2.46740985512660
H            7.58856280048655       -2.20665898564522       -2.11858352613348
H            5.39237059341872       -2.10450855380199       -1.00024431271297
