65
 energy: -106.492001012172 gnorm: 0.000069077774 xtb: 6.7.1 (edcfbbe)
C            2.97237459781830        5.01311229828037       -0.51266106663303
C            1.60586019445586        5.27133585406217       -0.61335195114454
C            0.66593120637064        4.34520958687375       -0.19969746124507
C            1.12388507443028        3.13730866656010        0.31053334502165
C            2.51230958977590        2.88574222567787        0.45514089812193
C            3.43636804577389        3.82913612670591        0.03111624987355
C            2.63099581207509        1.59626148212923        1.07232456946046
C            3.71446833785010        0.81071576760967        1.43742072854598
C            3.47515396571066       -0.43846932840759        1.98052541898620
C            2.17655118882028       -0.91504011727853        2.13781794483454
C            1.08054788128525       -0.14626444561841        1.78419365090263
C            1.31131632254654        1.12076198535313        1.26901964738994
N            0.40950313409197        2.06398040026201        0.80440181032911
C           -0.96295384104010        1.87602539989753        0.72312779139211
C           -1.66076821917343        2.18066483292717       -0.46862167519995
C           -2.96998684503145        1.81732042575809       -0.60843994616390
C           -3.64583087155186        1.16135306282344        0.44180138993724
C           -2.98596495833428        0.97325287830830        1.67458363532056
C           -1.67234369516941        1.31977135111655        1.81188458445093
S           -4.92208992517343        0.01155626475471        0.00477891211599
O           -5.65327416176917        0.45148666682193       -1.15266207230495
O           -5.65300854178939       -0.42521037487456        1.16358402709174
C           -3.65165709824825       -1.14380264171084       -0.43457239101948
C           -2.99305388971466       -0.95847636503434       -1.66844338003082
C           -1.68129334718687       -1.31107865188131       -1.80809604430378
C           -0.97263126425422       -1.87090908327808       -0.72072471820680
C           -1.66976492496765       -2.17244500871166        0.47221220410033
C           -2.97702412731190       -1.80300721307909        0.61439223233836
N            0.39875165649815       -2.06554544831489       -0.80450578202125
C            1.30437469116186       -1.12672715962322       -1.27061590990947
C            1.07896686593849        0.14152894863003       -1.78514147641489
C            2.17812487867387        0.90487959288215       -2.14073456465186
C            3.47462709387374        0.42181237779074       -1.98596846387056
C            3.70872503479119       -0.82863571666632       -1.44348946278511
C            2.62203950467701       -1.60882395339570       -1.07647926356013
C            2.49809313789552       -2.89782920613820       -0.45932731670197
C            3.41823625004368       -3.84589669381595       -0.03722842361370
C            2.94937543355186       -5.02768447469405        0.50714011830657
C            1.58178603912152       -5.27913523473684        0.61030466692981
C            0.64570615597618       -4.34825516654266        0.19860635165004
C            1.10870797293099       -3.14251491829157       -0.31219303179686
H            3.67571466580248        5.75891527070303       -0.85119232001069
H            1.27476276545922        6.21643647013185       -1.01594745463052
H           -0.38843515556828        4.56704763084116       -0.25487949936206
H            4.49443771197085        3.64142107539133        0.13059419832135
H            4.72208513852386        1.16944808011333        1.29488019228112
H            4.30418758449244       -1.06500403577213        2.27232685849378
H            2.02110781624149       -1.90490431474772        2.53982794162307
H            0.07848109571215       -0.53134359020473        1.88923441538215
H           -1.12960275203226        2.64055298445706       -1.28826545852541
H           -3.50931753478025        1.99219713203241       -1.52555321017682
H           -3.54723895341190        0.54646285987138        2.49036514211716
H           -1.16535219408589        1.20301180768111        2.75810676555771
H           -3.55375087940044       -0.52893074186235       -2.48317489749879
H           -1.17540242520716       -1.19642166074328       -2.75516547462899
H           -1.13932278198477       -2.63499355586465        1.29082793037736
H           -3.51555206194251       -1.97548836000707        1.53243327884366
H            0.07863831300407        0.53162087466579       -1.88824447879372
H            2.02686000233723        1.89555970405167       -2.54232657695771
H            4.30622639344906        1.04423260912852       -2.27926946647801
H            4.71480797636790       -1.19241909619956       -1.30291533905208
H            4.47704146105814       -3.66342006274753       -0.13861653396346
H            3.64962795049464       -5.77704796908847        0.84420503900621
H            1.24673851390313       -6.22267691853330        1.01328980986085
H           -0.40964425338652       -4.56487114403297        0.25568097996657
