  53
  -85.5138013360000       0.343757721025620      !
 C         -7.5329477902       -2.5451997632        0.2795301640
 O         -6.1943928204       -2.9848158424        0.3460483830
 C         -5.1943653502       -2.0859789792        0.2499905925
 C         -3.8952805396       -2.6293438884        0.3475440253
 C         -2.7734000870       -1.8426665828        0.2581495551
 C         -2.9443805018       -0.4735655181        0.0549880841
 C         -4.2467757151        0.0902960892       -0.0024744927
 C         -5.3717442232       -0.7123880590        0.0862267604
 C         -4.0679958119        1.5102453632       -0.1390720800
 C         -4.9448124813        2.5773038309       -0.2584242717
 C         -4.4213940576        3.8504333731       -0.4148240349
 C         -3.0466481907        4.0599057774       -0.4743367435
 C         -2.1515233627        3.0089107723       -0.3571402484
 C         -2.6687420154        1.7369607925       -0.1623355932
 N         -2.0072477242        0.5251707420       -0.0403083005
 C         -0.6332684448        0.3535750669       -0.0302410453
 C         -0.0297646287       -0.6778081497       -0.7792493281
 C          1.3227103651       -0.8458413839       -0.7714611741
 C          2.1785786309       -0.0014244190       -0.0068556498
 C          3.5849717599       -0.1792911469        0.0050200962
 C          4.5039356832        0.9107843937        0.2155462453
 C          4.0953008225        2.2475472293        0.2970641198
 N          3.8401313899        3.3719490050        0.3345603199
 C          5.8783482245        0.6782961139        0.2191277161
 C          6.8623478576        1.7863727236        0.4205887076
 N          6.3846922964       -0.5353209065        0.0349998368
 C          5.5945828389       -1.5840020044       -0.1618360488
 C          6.2728408868       -2.9050541175       -0.3392470153
 C          4.2059291807       -1.4652082412       -0.1893774939
 C          3.4791355851       -2.6581362519       -0.2854871075
 N          2.9536856807       -3.6839677285       -0.3347746377
 C          1.5469330799        1.0306793787        0.7453297725
 C          0.1951201203        1.2043253629        0.7306769081
 H         -7.7482122101       -2.0622999222       -0.6784343744
 H         -8.1404133397       -3.4432026399        0.3756676223
 H         -7.7689962535       -1.8583852221        1.0979690781
 H         -3.8123249992       -3.6923804832        0.5046374960
 H         -1.7906286728       -2.2741339870        0.3616605649
 H         -6.3524589743       -0.2673553898        0.0349730110
 H         -6.0118919280        2.4173641058       -0.2364324840
 H         -5.0885359811        4.6938239480       -0.5068709496
 H         -2.6675198162        5.0593411572       -0.6216367849
 H         -1.0888179083        3.1776234626       -0.4326874306
 H         -0.6474766495       -1.2900166327       -1.4191265811
 H          1.7603967641       -1.5977229712       -1.4065080375
 H          7.8711075668        1.3926900446        0.3318940577
 H          6.7098676426        2.5719328724       -0.3182990958
 H          6.7347212329        2.2324231154        1.4066667761
 H          5.9953200661       -3.3524241626       -1.2927282732
 H          7.3493804008       -2.7646833953       -0.3034422490
 H          5.9709904014       -3.5949568055        0.4480231572
 H          2.1473358791        1.6518019713        1.3887585362
 H         -0.2606715992        1.9522886552        1.3618630017
  53
  -85.5131668329000       0.175652779481956      !
 C         -7.4795342284       -2.6000537151        0.3531291708
 O         -6.1333954797       -3.0198087407        0.3839712412
 C         -5.1492096095       -2.1059287916        0.2675775177
 C         -3.8406887907       -2.6315338407        0.3290735054
 C         -2.7326401305       -1.8283233824        0.2177939585
 C         -2.9280725032       -0.4605501852        0.0283420033
 C         -4.2391040669        0.0853031759        0.0052591013
 C         -5.3501124120       -0.7340652345        0.1167246665
 C         -4.0830457163        1.5085266751       -0.1257495925
 C         -4.9766299708        2.5644351006       -0.2169314568
 C         -4.4741872427        3.8455440134       -0.3769234956
 C         -3.1041665912        4.0742942136       -0.4675132360
 C         -2.1924328890        3.0349013093       -0.3780840834
 C         -2.6878205211        1.7548515370       -0.1798283313
 N         -2.0072166222        0.5518628359       -0.0810240171
 C         -0.6313078767        0.3961662082       -0.0885945154
 C         -0.0264620168       -0.6268322094       -0.8476680912
 C          1.3255464084       -0.7972561808       -0.8356981282
 C          2.1787482966        0.0338936339       -0.0537783793
 C          3.5812985701       -0.1687620126       -0.0119493515
 C          4.5162898152        0.9022641507        0.2233478777
 C          4.1332903804        2.2475751508        0.2845711786
 N          3.8947675569        3.3759761190        0.3084935129
 C          5.8843689551        0.6399261731        0.2742335624
 C          6.8852702604        1.7281130883        0.4992144940
 N          6.3702785247       -0.5846759193        0.1085992977
 C          5.5648297182       -1.6158127920       -0.1173003883
 C          6.2204202780       -2.9503887607       -0.2786147155
 C          4.1804860048       -1.4673356433       -0.1890094174
 C          3.4310753963       -2.6444752951       -0.3073439999
 N          2.8842379936       -3.6583475094       -0.3752384342
 C          1.5479530757        1.0714911542        0.6913540338
 C          0.1964003938        1.2476381966        0.6724645014
 H         -8.0709128513       -3.5077421848        0.4583027026
 H         -7.7056731333       -1.9219264486        1.1815923165
 H         -7.7254458282       -2.1145678774       -0.5961003395
 H         -3.7389195617       -3.6942646213        0.4767666027
 H         -1.7415558409       -2.2461583993        0.2941852681
 H         -6.3381239533       -0.3029997613        0.0932616898
 H         -6.0406642159        2.3900371190       -0.1705667746
 H         -5.1546743559        4.6803350358       -0.4472849468
 H         -2.7423465554        5.0797706860       -0.6171802977
 H         -1.1340494964        3.2182728910       -0.4770100613
 H         -0.6431500371       -1.2315686124       -1.4956502037
 H          1.7656334008       -1.5418957023       -1.4776123142
 H          6.6265828527        2.3143898893        1.3798373570
 H          7.8715483135        1.2896916544        0.6258652978
 H          6.9022339375        2.4054712773       -0.3549383047
 H          6.0100891081       -3.3603490087       -1.2659559061
 H          7.2942167328       -2.8416126577       -0.1545368607
 H          5.8375194278       -3.6549281400        0.4586989434
 H          2.1478093275        1.6927907166        1.3350817495
 H         -0.2598927868        1.9962016056        1.3025236119
  53
  -85.5131599745000       0.174382590096957      !
 C         -7.5079995939       -2.5753998998        0.2276443631
 O         -6.1670711968       -3.0022552782        0.3189659337
 C         -5.1736276076       -2.0945558285        0.2373376453
 C         -3.8715478207       -2.6275503259        0.3509123755
 C         -2.7552822551       -1.8317087429        0.2746712308
 C         -2.9355948583       -0.4640106143        0.0699444276
 C         -4.2413448771        0.0899673741       -0.0008778878
 C         -5.3606432289       -0.7222155205        0.0734787299
 C         -4.0710987871        1.5114320729       -0.1338327875
 C         -4.9540360456        2.5720444192       -0.2642057712
 C         -4.4380127778        3.8490670642       -0.4136120149
 C         -3.0642770193        4.0691087026       -0.4534952296
 C         -2.1629707282        3.0246995362       -0.3256988490
 C         -2.6733218199        1.7485206230       -0.1411685400
 N         -2.0048357044        0.5411647284       -0.0158678692
 C         -0.6301824537        0.3722551341       -0.0116004215
 C         -0.0321430736       -0.6530125347       -0.7728986896
 C          1.3199580345       -0.8234624661       -0.7725030327
 C          2.1795293251        0.0119683961       -0.0032110728
 C          3.5854709898       -0.1742090469        0.0036653967
 C          4.5123311230        0.9120339668        0.2037144816
 C          4.0934259311        2.2482032377        0.2543118727
 N          3.8105929111        3.3663877424        0.2675683655
 C          5.8830396216        0.6679827137        0.2195302953
 C          6.8925072836        1.7563849495        0.3967800692
 N          6.3774296129       -0.5557170115        0.0500766739
 C          5.5818536050       -1.5971921735       -0.1486786271
 C          6.2487200171       -2.9252056377       -0.3176521938
 C          4.1937002910       -1.4670471944       -0.1832560695
 C          3.4556244321       -2.6525554596       -0.2768054391
 N          2.9187140123       -3.6727417106       -0.3250940670
 C          1.5539103462        1.0385440550        0.7605898139
 C          0.2019535268        1.2151676411        0.7529330379
 H         -7.7091523915       -2.0913499041       -0.7328489728
 H         -8.1085785305       -3.4794628363        0.3088455036
 H         -7.7670322173       -1.8935949269        1.0434224163
 H         -3.7819719268       -3.6899775785        0.5083801547
 H         -1.7698322525       -2.2545239231        0.3882272217
 H         -6.3445075651       -0.2854918319        0.0123978928
 H         -6.0200561729        2.4041106449       -0.2567164009
 H         -5.1100439572        4.6873908420       -0.5147888082
 H         -2.6908547081        5.0717240501       -0.5939423734
 H         -1.1006402364        3.2013432687       -0.3858991450
 H         -0.6545086345       -1.2582984777       -1.4148423696
 H          1.7543500116       -1.5691723412       -1.4170255444
 H          7.3245838510        2.0114657510       -0.5718101870
 H          6.4440148039        2.6499551603        0.8233770983
 H          7.6984647591        1.4009740044        1.0358490656
 H          5.9495301953       -3.3869459453       -1.2574811002
 H          7.3265744766       -2.7914937786       -0.3038930866
 H          5.9579319611       -3.5994671050        0.4872559589
 H          2.1587675359        1.6536325153        1.4056213991
 H         -0.2499824106        1.9591821240        1.3915751478
  53
  -85.5124698425000       8.401182449384677E-002 !
 C         -7.5446310244       -2.1678465102        1.3812408450
 O         -6.2068732495       -2.5576432788        1.6003641938
 C         -5.2050711075       -1.7817078462        1.1404294583
 C         -3.9067376837       -2.2549239551        1.4271719907
 C         -2.7836830901       -1.5803436954        1.0160292143
 C         -2.9523271469       -0.4025757038        0.2885218892
 C         -4.2532882242        0.1046891442        0.0301667357
 C         -5.3796408969       -0.5845417064        0.4464805013
 C         -4.0714849974        1.3520932149       -0.6617656789
 C         -4.9459878967        2.2923324506       -1.1836185364
 C         -4.4203230033        3.3930551878       -1.8405265881
 C         -3.0460026420        3.5473928529       -1.9969605662
 C         -2.1535528263        2.6207770943       -1.4831931026
 C         -2.6721567951        1.5362591781       -0.7915950298
 N         -2.0130600070        0.4666340348       -0.2073816583
 C         -0.6375572048        0.3031154941       -0.1476462426
 C         -0.0427372103       -0.9369578633       -0.4574771715
 C          1.3116406246       -1.0896862463       -0.4180334234
 C          2.1756942240       -0.0246984951       -0.0314000126
 C          3.5838978133       -0.1849594413        0.0221853277
 C          4.4186861308        0.5763738332        0.9184730900
 C          3.9121568040        1.4299179823        1.9067332989
 N          3.5807779828        2.1211416177        2.7689144375
 C          5.7996947819        0.3871049158        0.9237137021
 C          6.6935792366        1.1440459667        1.8537174774
 N          6.3900527339       -0.4858834373        0.1166639247
 C          5.6824142167       -1.2230838902       -0.7307324692
 C          6.4554537576       -2.1626837057       -1.6004368176
 C          4.2950809826       -1.1170307192       -0.8172255762
 C          3.6855110049       -1.8579889231       -1.8375572168
 N          3.2729973592       -2.4755897455       -2.7199569392
 C          1.5503697129        1.2127691720        0.2970058752
 C          0.1987671520        1.3754937947        0.2246121752
 H         -7.7728563877       -2.1053896122        0.3129794780
 H         -8.1541554634       -2.9466845891        1.8357632452
 H         -7.7649496584       -1.2090752825        1.8602358220
 H         -3.8258412637       -3.1689671881        1.9926692062
 H         -1.8003446466       -1.9448285009        1.2671206778
 H         -6.3593610567       -0.1855733184        0.2375880256
 H         -6.0131657270        2.1648955645       -1.0860017093
 H         -5.0854386490        4.1369676752       -2.2515937104
 H         -2.6657536204        4.4019499257       -2.5351167247
 H         -1.0913557235        2.7336449377       -1.6333829482
 H         -0.6696854441       -1.7549758185       -0.7789355854
 H          1.7370263332       -2.0485459843       -0.6612472042
 H          7.7303933303        0.9250006419        1.6141670907
 H          6.5158664835        2.2153477719        1.7729127014
 H          6.4952038195        0.8541152438        2.8854337055
 H          6.1138551545       -3.1867279070       -1.4555738755
 H          6.3110105309       -1.9133651584       -2.6512155362
 H          7.5113434114       -2.0938493773       -1.3544582481
 H          2.1628910135        2.0505747822        0.5840008606
 H         -0.2473894828        2.3179052192        0.5040754748
  53
  -85.5124096124000       7.882438281666661E-002 !
 C         -7.5245482840       -2.5556046134        0.2613157399
 O         -6.1849124572       -2.9910764103        0.3381652996
 C         -5.1873059641       -2.0890958478        0.2467731007
 C         -3.8869384284       -2.6294406037        0.3453083660
 C         -2.7668527503       -1.8400837171        0.2588366219
 C         -2.9411088211       -0.4709891091        0.0582645066
 C         -4.2445809938        0.0901361930        0.0006629367
 C         -5.3677381862       -0.7156693514        0.0863127589
 C         -4.0683947719        1.5105824876       -0.1341272940
 C         -4.9468177928        2.5762749490       -0.2543975297
 C         -4.4253920696        3.8501998425       -0.4105341791
 C         -3.0510612337        4.0624324978       -0.4683516932
 C         -2.1543543870        3.0130962690       -0.3499033957
 C         -2.6697364167        1.7402019674       -0.1562205590
 N         -2.0060953698        0.5294654944       -0.0356411073
 C         -0.6314928447        0.3599104246       -0.0269038357
 C         -0.0284385225       -0.6674213077       -0.7816036519
 C          1.3240241842       -0.8354166132       -0.7747823439
 C          2.1791445853        0.0049213163       -0.0052987166
 C          3.5855607052       -0.1761085513        0.0069039483
 C          4.5075813671        0.9127364427        0.2132825141
 C          4.0907438599        2.2487760565        0.2765631238
 N          3.8222453752        3.3692675200        0.3128916221
 C          5.8796845807        0.6750310541        0.2250546664
 C          6.8800469051        1.7713913583        0.4067558497
 N          6.3801872652       -0.5436623859        0.0453917528
 C          5.5889689001       -1.5885719013       -0.1556493750
 C          6.2630559591       -2.9110874483       -0.3386029385
 C          4.2003214660       -1.4651081742       -0.1843397849
 C          3.4680484822       -2.6544571456       -0.2731789892
 N          2.9405166375       -3.6786527799       -0.3288244584
 C          1.5482160543        1.0334425255        0.7517575312
 C          0.1961605340        1.2074550119        0.7377597736
 H         -7.7317715378       -2.0708632051       -0.6969681031
 H         -8.1295618935       -3.4560276287        0.3491899140
 H         -7.7700071117       -1.8722455219        1.0796222582
 H         -3.8019218321       -3.6926435309        0.4996583038
 H         -1.7828591027       -2.2687353424        0.3611320465
 H         -6.3492764659       -0.2725100315        0.0362250979
 H         -6.0135428333        2.4144372375       -0.2334066165
 H         -5.0937872636        4.6923364868       -0.5040001172
 H         -2.6737103514        5.0625827981       -0.6157412071
 H         -1.0918615534        3.1831513122       -0.4241987283
 H         -0.6469351346       -1.2769923808       -1.4233713554
 H          1.7621147211       -1.5832533517       -1.4144573454
 H          7.7698649320        1.3728105805        0.8841150475
 H          7.1692403534        2.1664548964       -0.5660873038
 H          6.4727133596        2.5868654916        0.9960220056
 H          5.9203860562       -3.6208252690        0.4132860490
 H          6.0244093384       -3.3270743081       -1.3171162097
 H          7.3385957554       -2.7821168120       -0.2542495049
 H          2.1485865884        1.6513112148        1.3985556165
 H         -0.2594962636        1.9518992486        1.3732239548
  53
  -85.5122819669000       6.886503440494518E-002 !
 C         -6.3035061935       -3.5693782468       -2.0481508476
 O         -6.3665239657       -2.3224603916       -1.3916864014
 C         -5.2279116748       -1.6995493752       -1.0246962044
 C         -3.9379074452       -2.2165976651       -1.2251215235
 C         -2.8173159223       -1.5143746850       -0.8306464451
 C         -2.9845906478       -0.2686962171       -0.2365825136
 C         -4.2878168298        0.2437926389        0.0122719689
 C         -5.4011313745       -0.4639336099       -0.3864433355
 C         -4.1037949830        1.4935874871        0.7015093418
 C         -4.9779895691        2.4507625284        1.1902984737
 C         -4.4510361186        3.5850773279        1.7861567064
 C         -3.0747341254        3.7767225479        1.8753786309
 C         -2.1828046531        2.8334409409        1.3943710116
 C         -2.7040030241        1.6775929690        0.8298222709
 N         -2.0448591627        0.6024501775        0.2591312383
 C         -0.6704076857        0.4329395182        0.1885481234
 C         -0.0602331455        0.0070908406       -1.0092165308
 C          1.2894332466       -0.1699936284       -1.0808956543
 C          2.1333646750        0.0328667754        0.0493148475
 C          3.5326801435       -0.1867819663       -0.0163363745
 C          4.2867800787       -0.0502928512       -1.2382671819
 C          3.7453947993        0.4512186331       -2.4285141536
 N          3.3935399371        0.8879569625       -3.4367375792
 C          5.6582570493       -0.2990174394       -1.2498771642
 C          6.4731217596       -0.1549682945       -2.4957732029
 N          6.3137391493       -0.6637048820       -0.1546130684
 C          5.6829325854       -0.8055425566        1.0047916341
 C          6.5191944708       -1.2359392992        2.1678414760
 C          4.3131676862       -0.5794734476        1.1311886845
 C          3.7555578243       -0.8844355932        2.3791680402
 N          3.3809416328       -1.1904248101        3.4264873256
 C          1.4942852354        0.4619900247        1.2486814869
 C          0.1480017134        0.6690572331        1.3118911923
 H         -5.8479065000       -4.3341655442       -1.4120657837
 H         -7.3367588551       -3.8418857148       -2.2550525702
 H         -5.7513372029       -3.4991607662       -2.9899584883
 H         -3.8052914997       -3.1828600871       -1.6841362920
 H         -1.8351572246       -1.9388611888       -0.9674087418
 H         -6.4012892753       -0.0999945699       -0.2166912459
 H         -6.0447331255        2.3152716454        1.1014161754
 H         -5.1156084700        4.3410663133        2.1755622240
 H         -2.6934032640        4.6820053814        2.3221380309
 H         -1.1185610791        3.0027038675        1.4425559170
 H         -0.6706213441       -0.1296670702       -1.8892515787
 H          1.7249596842       -0.4977592334       -2.0094789738
 H          6.0859364755       -0.8010540734       -3.2826096812
 H          6.4298672703        0.8704449839       -2.8612942863
 H          7.5050822594       -0.4195984497       -2.2831613064
 H          7.5503978709       -1.3504677911        1.8462846391
 H          6.4678249864       -0.4995438280        2.9686958672
 H          6.1562645770       -2.1820687680        2.5675239540
 H          2.0932044524        0.6506520666        2.1233809742
 H         -0.3094708135        0.9656200137        2.2435885602
  53
  -85.5119972375000       5.095023559300617E-002 !
 C         -6.2567958850       -3.6062070726       -2.0376090330
 O         -6.3346219839       -2.3641378605       -1.3734155686
 C         -5.2028821067       -1.7208975270       -1.0202718036
 C         -3.9063297843       -2.2113905942       -1.2434039449
 C         -2.7936385393       -1.4910385408       -0.8595568142
 C         -2.9754167836       -0.2526939694       -0.2544615576
 C         -4.2844579770        0.2333682564        0.0154387607
 C         -5.3899475002       -0.4927659508       -0.3717958220
 C         -4.1149234457        1.4816719293        0.7109465516
 C         -5.0006770172        2.4165829117        1.2213764946
 C         -4.4876522525        3.5561259919        1.8193826355
 C         -3.1142960920        3.7753212156        1.8883470156
 C         -2.2110780166        2.8542716282        1.3860443365
 C         -2.7173199421        1.6918908433        0.8210179706
 N         -2.0454632864        0.6327316267        0.2352193280
 C         -0.6693707867        0.4800708981        0.1610782646
 C         -0.0556318274        0.0557093726       -1.0354972968
 C          1.2938630450       -0.1244549623       -1.1036707464
 C          2.1350474942        0.0736269829        0.0296165427
 C          3.5304864990       -0.1718516000       -0.0223315200
 C          4.2980866569       -0.0731871155       -1.2398541279
 C          3.7798392707        0.4177122180       -2.4445573429
 N          3.4463450320        0.8430619045       -3.4636852027
 C          5.6633298220       -0.3550452305       -1.2353486900
 C          6.4934319317       -0.2508619651       -2.4751637442
 N          6.3015134678       -0.7139380186       -0.1281707480
 C          5.6591188405       -0.8173769807        1.0288494121
 C          6.4782347416       -1.2377868147        2.2075832648
 C          4.2932250132       -0.5608310036        1.1387679877
 C          3.7206421348       -0.8346236133        2.3873046283
 N          3.3355866734       -1.1162476051        3.4378701275
 C          1.4944706135        0.5194494720        1.2223378383
 C          0.1481859517        0.7261913952        1.2829625603
 H         -5.7683825458       -4.3628344903       -1.4163237030
 H         -7.2877680796       -3.9024931970       -2.2221152214
 H         -5.7283156056       -3.5177498776       -2.9914284852
 H         -3.7617798709       -3.1712827885       -1.7121198382
 H         -1.8060632759       -1.8966813675       -1.0130508807
 H         -6.3940737972       -0.1483127321       -0.1851812550
 H         -6.0656731590        2.2599050479        1.1479715497
 H         -5.1611909207        4.2946248256        2.2264522984
 H         -2.7445601315        4.6846521161        2.3366613878
 H         -1.1499416279        3.0452739921        1.4188322097
 H         -0.6636291448       -0.0796635037       -1.9174298936
 H          1.7305703690       -0.4523151919       -2.0315344185
 H          6.0343725075       -0.8003101488       -3.2953992935
 H          6.5791429979        0.7911798989       -2.7832838156
 H          7.4860824914       -0.6458746646       -2.2772389449
 H          6.0622191476       -2.1360958759        2.6615241449
 H          7.4978366158       -1.4302611595        1.8861489213
 H          6.4803810188       -0.4563611452        2.9667364532
 H          2.0921005771        0.7183546394        2.0955169645
 H         -0.3095454624        1.0283911041        2.2126372126
  53
  -85.5112681724000       2.355543208700213E-002 !
 C         -7.5346100105       -2.5461121942        0.2573960682
 O         -6.1968717015       -2.9842667471        0.3339909663
 C         -5.1958029772       -2.0853029913        0.2456181524
 C         -3.8970726084       -2.6300285767        0.3419881420
 C         -2.7745847711       -1.8440448754        0.2559040547
 C         -2.9440606122       -0.4741102715        0.0574507796
 C         -4.2460467577        0.0913600022        0.0038685111
 C         -5.3718456267       -0.7107878821        0.0897464114
 C         -4.0656962313        1.5115008342       -0.1281742455
 C         -4.9411060796        2.5803390225       -0.2419832299
 C         -4.4161917933        3.8530694658       -0.3974747907
 C         -3.0412378103        4.0604852384       -0.4620584530
 C         -2.1475773697        3.0079625579       -0.3496862678
 C         -2.6661624893        1.7365113837       -0.1552784031
 N         -2.0062047761        0.5236272979       -0.0374989299
 C         -0.6323166111        0.3518432397       -0.0295780535
 C         -0.0294029669       -0.6781088213       -0.7804725634
 C          1.3233070297       -0.8459110099       -0.7743668878
 C          2.1791330524       -0.0023194952       -0.0093975372
 C          3.5858551631       -0.1795791021        0.0028690642
 C          4.5030027453        0.9132184944        0.2102642397
 C          4.0858387062        2.2488551957        0.2635498474
 N          3.8189769410        3.3707889634        0.2898535936
 C          5.8767020146        0.6808255632        0.2284483927
 C          6.8666020995        1.7871973798        0.4090490243
 N          6.3834108451       -0.5355203713        0.0568181292
 C          5.5959229238       -1.5840137818       -0.1457443146
 C          6.2753675325       -2.9051456049       -0.3120754505
 C          4.2072748592       -1.4656537761       -0.1854646414
 C          3.4798473471       -2.6580517069       -0.2852813774
 N          2.9550806536       -3.6834870581       -0.3422751518
 C          1.5480464438        1.0276602979        0.7458816840
 C          0.1963976679        1.2014341556        0.7324812902
 H         -7.7407480355       -2.0541184018       -0.6981783267
 H         -8.1421071920       -3.4459338377        0.3378945674
 H         -7.7832966708       -1.8670118873        1.0796819575
 H         -3.8156054474       -3.6938378767        0.4940287683
 H         -1.7920050022       -2.2768148345        0.3576836141
 H         -6.3519806683       -0.2639362964        0.0420949835
 H         -6.0082753917        2.4221189505       -0.2163881935
 H         -5.0822524491        4.6977420947       -0.4851041482
 H         -2.6610574997        5.0597101387       -0.6087395805
 H         -1.0849031834        3.1750069966       -0.4286625252
 H         -0.6481651550       -1.2896413395       -1.4201053100
 H          1.7606204286       -1.5972845996       -1.4102502221
 H          7.8081021870        1.3755257794        0.7598895237
 H          7.0427212952        2.2812416171       -0.5458159309
 H          6.5000196257        2.5339811524        1.1084118492
 H          5.9512860714       -3.3913853389       -1.2291432510
 H          7.3505583967       -2.7580220654       -0.3373125049
 H          6.0250679896       -3.5649937518        0.5168549524
 H          2.1485701810        1.6465355272        1.3912915183
 H         -0.2589867024        1.9476930942        1.3659535982
