  78
  -119.895570643100       0.533489508296805      !
 C          1.7235446492        4.2224486130        1.1547084462
 C          0.6485010302        3.1595383283        0.9252232554
 C          0.0679924793        2.7537043988        2.2980214660
 C         -0.5000810831        3.6654986513        0.0727880183
 C         -0.7595586831        5.0075651763       -0.1568766520
 C         -1.8766913485        5.4082285289       -0.8706795990
 C         -2.7548323871        4.4646032933       -1.3731257619
 C         -2.5086239167        3.1200097475       -1.1739092936
 C         -1.3912066288        2.7201296089       -0.4509812711
 N         -1.0841755790        1.3636233326       -0.2827342033
 C         -2.0142948151        0.3691372030       -0.0714197250
 N         -3.2916632814        0.6084421974       -0.2371877895
 C         -4.1501873929       -0.4294237389        0.0599059032
 C         -5.5605884363       -0.2074298213       -0.0510914267
 C         -6.4672135905       -1.2593594090        0.1593313993
 C         -7.8211208286       -1.0473059442        0.0350235851
 C         -8.3098432014        0.2102762454       -0.2983660241
 C         -7.4229467518        1.2594657876       -0.5008731339
 C         -6.0656489552        1.0607686342       -0.3798585653
 N         -3.6864289901       -1.6219156697        0.3993455590
 C         -2.3876450839       -1.8306583033        0.5029720037
 C         -1.8586178429       -3.1327535273        0.7786935734
 C         -0.4702426412       -3.3349919905        0.8456053906
 C          0.0390585659       -4.5930604513        1.0783032277
 C         -0.8134812594       -5.6740711383        1.2607039244
 C         -2.1893748589       -5.4825729598        1.2057057305
 C         -2.7113408345       -4.2320701102        0.9646275439
 N         -1.5123645362       -0.7839903821        0.3478130863
 C          0.2659117647        1.0107712261       -0.2854276976
 C          0.6635400293       -0.1923742391       -0.8681646438
 C          1.9948299624       -0.5547992867       -0.7883065341
 C          2.7314467032       -1.7099634739       -1.2190096296
 C          2.3619863973       -2.9144672988       -1.8007634060
 C          3.3456864948       -3.8522192937       -2.0499432315
 C          4.6750604668       -3.6062190041       -1.7138168251
 C          5.0639473254       -2.4172624767       -1.1244591607
 C          4.0840943866       -1.4641906321       -0.8883966370
 N          4.1871500979       -0.2256693573       -0.2805183656
 C          5.3758183021        0.3629881591        0.1767959136
 C          6.4786110432        0.4529184488       -0.6675485667
 C          7.6494085657        1.0303086687       -0.2119816054
 C          7.7270081944        1.5275849724        1.0785887163
 C          6.6289532493        1.4409972495        1.9186348147
 C          5.4563205076        0.8577072908        1.4754123922
 C          2.9303688763        0.3270190080       -0.2006142090
 C          2.5401484687        1.5664824697        0.2952391180
 C          1.1991746640        1.9045708142        0.2754206868
 H          2.5027538776        3.8373648836        1.8071465301
 H          1.2945188681        5.0887940651        1.6505921207
 H          2.1701592383        4.5351448702        0.2134892764
 H         -0.6920743031        1.9843176639        2.1909355829
 H          0.8589927603        2.3666473834        2.9369527113
 H         -0.3830726384        3.6182923076        2.7802453357
 H         -0.0938974200        5.7638046194        0.2259342000
 H         -2.0599160563        6.4602718765       -1.0290325458
 H         -3.6257062470        4.7724843660       -1.9312927280
 H         -3.1720546110        2.3709720445       -1.5722607623
 H         -6.0776368566       -2.2325455926        0.4152925145
 H         -8.5103022753       -1.8644580348        0.1957712627
 H         -9.3732523002        0.3707733533       -0.3970514025
 H         -7.8015316543        2.2400000876       -0.7538975196
 H         -5.3714384824        1.8734813716       -0.5276396323
 H          0.1856959411       -2.4884546999        0.7115829620
 H          1.1098767576       -4.7378312703        1.1191613042
 H         -0.4102062726       -6.6587365258        1.4455698042
 H         -2.8529512092       -6.3234811416        1.3498526127
 H         -3.7774003143       -4.0728834515        0.9133470888
 H         -0.0417021592       -0.8161152739       -1.3900066762
 H          1.3285009053       -3.1136118808       -2.0383225515
 H          3.0820807605       -4.7958475534       -2.5028952491
 H          5.4183291321       -4.3642664411       -1.9102645693
 H          6.0924370284       -2.2462198707       -0.8445915469
 H          6.4051174124        0.0839585884       -1.6797265823
 H          8.5021392906        1.0986825713       -0.8706865643
 H          8.6416663174        1.9802335605        1.4295367737
 H          6.6880847400        1.8208592997        2.9276494661
 H          4.6059692394        0.7629086178        2.1344861759
 H          3.2799980792        2.2371671360        0.6984638119
  78
  -119.894800178300       0.236072161616000      !
 C          1.6557798218        4.2310178606        1.0494764013
 C          0.6026673200        3.1476181097        0.8130090164
 C         -0.0184603463        2.7702250014        2.1756602021
 C         -0.5225111013        3.6160945894       -0.0910516914
 C         -0.7899194893        4.9469128796       -0.3719316438
 C         -1.8861073574        5.3091805405       -1.1367708539
 C         -2.7335552158        4.3384213331       -1.6401465997
 C         -2.4774774473        3.0040592539       -1.3903066650
 C         -1.3826860951        2.6436509889       -0.6144250325
 N         -1.0651032212        1.2959423117       -0.3926477896
 C         -2.0012120244        0.3167944808       -0.1496741583
 N         -3.2782998163        0.6001375954       -0.2478003081
 C         -4.1555045957       -0.4061683387        0.0940225195
 C         -5.5582276785       -0.1182755917        0.0983084499
 C         -6.4956388526       -1.1251634132        0.3797658845
 C         -7.8423657096       -0.8420635429        0.3769246088
 C         -8.2919381130        0.4431190953        0.0982621112
 C         -7.3730288316        1.4476458507       -0.1756010554
 C         -6.0227150571        1.1777984513       -0.1775551350
 N         -3.7164977300       -1.6193533356        0.3871119797
 C         -2.4219693350       -1.8762683635        0.4150812295
 C         -1.9269367492       -3.2010635373        0.6368518906
 C         -0.5443832827       -3.4448134653        0.6885575239
 C         -0.0696259744       -4.7254060896        0.8644316340
 C         -0.9511146511       -5.7897555028        1.0021253000
 C         -2.3213462744       -5.5575738989        0.9637399446
 C         -2.8091208265       -4.2836281555        0.7816670980
 N         -1.5199851804       -0.8559643724        0.2318939447
 C          0.2900548927        0.9624116309       -0.3575386960
 C          0.7213490522       -0.2551523302       -0.8798538804
 C          2.0574075917       -0.5896474973       -0.7567008553
 C          2.8181641767       -1.7627421360       -1.0856933859
 C          2.4840119604       -2.9950258131       -1.6294538271
 C          3.4886166899       -3.9253492531       -1.8143403520
 C          4.8089600856       -3.6332920775       -1.4794438522
 C          5.1631394365       -2.4149857618       -0.9298315734
 C          4.1546800236       -1.4869428197       -0.7144418821
 N          4.2272710055       -0.2095863338       -0.1883536894
 C          5.3928687600        0.4272702828        0.2641662999
 C          5.7130709902        1.7017898682       -0.1950562366
 C          6.8599780778        2.3287667777        0.2557020125
 C          7.6972364866        1.6900766000        1.1556764720
 C          7.3808126516        0.4205838462        1.6107533906
 C          6.2311723426       -0.2111181095        1.1734593943
 C          2.9655993883        0.3380993747       -0.1993668299
 C          2.5357372208        1.5714661280        0.2782341616
 C          1.1914707452        1.8861989644        0.2098020132
 H          2.4170224262        3.8754731482        1.7388929355
 H          1.1982889736        5.1046538523        1.5055344821
 H          2.1297593272        4.5242892181        0.1153436576
 H         -0.7699249095        1.9929879607        2.0639454743
 H          0.7545546723        2.4049900603        2.8484854036
 H         -0.4908840054        3.6426683836        2.6219105327
 H         -0.1474452648        5.7237103268        0.0093489437
 H         -2.0768935643        6.3530084262       -1.3352621344
 H         -3.5871684560        4.6166471482       -2.2390038961
 H         -3.1176994217        2.2357382851       -1.7902584199
 H         -6.1361976917       -2.1194595818        0.5958449333
 H         -8.5566347670       -1.6241194912        0.5929180567
 H         -9.3500636392        0.6595332269        0.0966276001
 H         -7.7207462852        2.4492504233       -0.3871178571
 H         -5.3009332143        1.9542028410       -0.3804013102
 H          0.1347701865       -2.6115828017        0.5926354046
 H          0.9970480403       -4.9008800850        0.8955336745
 H         -0.5748689932       -6.7927646233        1.1396655643
 H         -3.0076452077       -6.3853746772        1.0737570178
 H         -3.8706169691       -4.0929746231        0.7429843039
 H          0.0349788070       -0.9174727636       -1.3785881758
 H          1.4623238637       -3.2173462891       -1.8961703546
 H          3.2517327981       -4.8918355894       -2.2326619821
 H          5.5741185541       -4.3750389871       -1.6525299948
 H          6.1910461179       -2.1942945387       -0.6855712652
 H          5.0702457027        2.1844619504       -0.9163690907
 H          7.1052428500        3.3164301674       -0.1052549401
 H          8.5945848918        2.1802766145        1.5009036453
 H          8.0282724131       -0.0785550311        2.3160063873
 H          5.9677983608       -1.1905074099        1.5439131481
 H          3.2457707092        2.2447426272        0.7285670101
  78
  -119.894777352400       0.230438330087195      !
 C          1.7897552279        4.2306938630        1.1623947922
 C          0.6852089617        3.1948662234        0.9485864197
 C          0.1152335042        2.8010483863        2.3290477095
 C         -0.4656687176        3.7323094082        0.1165237560
 C         -0.6964503034        5.0809502852       -0.1037111596
 C         -1.8216985478        5.5124563250       -0.7870578000
 C         -2.7439468497        4.5949341605       -1.2582416991
 C         -2.5285487992        3.2437739164       -1.0685954935
 C         -1.3943509147        2.8131578789       -0.3911056387
 N         -1.1080728515        1.4517412075       -0.2522660172
 C         -2.0321697299        0.4508215886       -0.0300086383
 N         -3.3040975884        0.6295751976       -0.2745868083
 C         -4.1307648120       -0.4374115407        0.0185872462
 C         -5.5389582575       -0.2981823612       -0.2039089270
 C         -6.4030716652       -1.3854054499        0.0075903415
 C         -7.7522214803       -1.2605730162       -0.2322864969
 C         -8.2791790096       -0.0570372950       -0.6854078681
 C         -7.4360852443        1.0274773040       -0.8880398735
 C         -6.0840392821        0.9158187932       -0.6512962658
 N         -3.6394682091       -1.5951486052        0.4368239814
 C         -2.3420270959       -1.7378646960        0.6239207764
 C         -1.7606479785       -2.9997771194        0.9758736524
 C         -0.3671843835       -3.1181431509        1.1067541642
 C          0.2026886428       -4.3341899915        1.4100839878
 C         -0.5945249281       -5.4549739251        1.6012701316
 C         -1.9752139359       -5.3460457343        1.4830679336
 C         -2.5571638850       -4.1380247210        1.1707133501
 N         -1.5077159185       -0.6593250256        0.4749536260
 C          0.2336607889        1.0736504713       -0.2799949664
 C          0.5867173559       -0.1382641070       -0.8759931000
 C          1.9090786584       -0.5351427805       -0.8251941675
 C          2.5993689111       -1.7176744459       -1.2552977113
 C          2.1866664131       -2.8935060284       -1.8657976175
 C          3.1402448086       -3.8479286962       -2.1630498464
 C          4.4853366273       -3.6347055608       -1.8700145503
 C          4.9163694596       -2.4756466812       -1.2503417087
 C          3.9603934872       -1.5249098587       -0.9248027729
 N          4.1117978586       -0.2881252517       -0.3211884853
 C          5.3221578487        0.2473560975        0.1442913523
 C          5.7073747597        1.5329504226       -0.2243924961
 C          6.9010298418        2.0537965338        0.2402201298
 C          7.7200871812        1.2980991098        1.0628200774
 C          7.3388393170        0.0172193271        1.4273401230
 C          6.1425051307       -0.5088945693        0.9765956551
 C          2.8797175639        0.3182526927       -0.2521126144
 C          2.5264124854        1.5477398201        0.2956042789
 C          1.1966744878        1.9304183648        0.2854454910
 H          2.5712926019        3.8246337247        1.7991065352
 H          1.3910158237        5.1054352529        1.6687783078
 H          2.2261823298        4.5358993990        0.2138903156
 H         -0.6561523524        2.0414782062        2.2323760357
 H          0.9084382442        2.4046499079        2.9593917207
 H         -0.3182188856        3.6732118524        2.8139529456
 H         -0.0017694557        5.8190578935        0.2626729415
 H         -1.9790083282        6.5693086315       -0.9412865157
 H         -3.6256427734        4.9287557591       -1.7836156353
 H         -3.2235352304        2.5097713052       -1.4401920234
 H         -5.9838982553       -2.3169048460        0.3553372076
 H         -8.4074374901       -2.1049178214       -0.0700255837
 H         -9.3382236775        0.0345202780       -0.8765588424
 H         -7.8446729305        1.9665731482       -1.2345670455
 H         -5.4257911300        1.7572990822       -0.8011434012
 H          0.2438948133       -2.2401395920        0.9633184688
 H          1.2773011943       -4.4150107605        1.4988995174
 H         -0.1441504780       -6.4067819267        1.8414345489
 H         -2.5950966647       -6.2185099595        1.6338775762
 H         -3.6273341866       -4.0440396627        1.0689914018
 H         -0.1442242775       -0.7428140598       -1.3848727749
 H          1.1452873998       -3.0528104485       -2.0985038395
 H          2.8433075181       -4.7709467674       -2.6373540759
 H          5.2090686544       -4.3919028896       -2.1317249608
 H          5.9627225176       -2.3166094462       -1.0381329015
 H          5.0787944561        2.1074375206       -0.8885558961
 H          7.1968230692        3.0508356184       -0.0499379196
 H          8.6537001303        1.7060954627        1.4185484168
 H          7.9718281480       -0.5734186429        2.0723989521
 H          5.8285910016       -1.4970691336        1.2779514962
 H          3.2820835826        2.1661860913        0.7501691219
