  78
  -120.376343430000       0.473294729889436      !
 C          1.6428362076        4.2134198961        1.1369703806
 C          0.5930982184        3.1316233277        0.8791252247
 C         -0.0243701994        2.7230093211        2.2344151334
 C         -0.5352558299        3.6153539332       -0.0128637317
 C         -0.8077789110        4.9509224825       -0.2647881951
 C         -1.9065336597        5.3255955770       -1.0199059290
 C         -2.7514592220        4.3628413750       -1.5425277747
 C         -2.4903076462        3.0243534285       -1.3216933429
 C         -1.3929369123        2.6512983687       -0.5554936792
 N         -1.0702824160        1.3002831322       -0.3631018586
 C         -2.0025571765        0.3128784885       -0.1395796175
 N         -3.2807905572        0.5937593332       -0.2295277447
 C         -4.1538973905       -0.4227025269        0.0921435909
 C         -5.5576050639       -0.1399039999        0.1048876447
 C         -6.4910194902       -1.1558692290        0.3662939257
 C         -7.8387269108       -0.8775131169        0.3717179606
 C         -8.2932499092        0.4117422030        0.1213340329
 C         -7.3783159708        1.4251195128       -0.1324998107
 C         -6.0270760448        1.1601278737       -0.1424406652
 N         -3.7101657882       -1.6403226195        0.3585077621
 C         -2.4147044616       -1.8932207425        0.3788514771
 C         -1.9146813939       -3.2207034062        0.5714350926
 C         -0.5312007364       -3.4606371497        0.6156465940
 C         -0.0516855474       -4.7430180122        0.7633225253
 C         -0.9292247166       -5.8131619156        0.8796777523
 C         -2.3003204617       -5.5850351279        0.8485159055
 C         -2.7928402965       -4.3092128974        0.6945219420
 N         -1.5165947262       -0.8660674766        0.2160377733
 C          0.2860872330        0.9708480388       -0.3373575074
 C          0.7207209658       -0.2337493360       -0.8862914616
 C          2.0581457599       -0.5660976644       -0.7725126662
 C          2.8224166144       -1.7292089531       -1.1277589036
 C          2.4916241672       -2.9507572357       -1.6971904905
 C          3.4991434330       -3.8733763806       -1.9035741989
 C          4.8190350384       -3.5839002901       -1.5646796947
 C          5.1699131930       -2.3763807023       -0.9897293367
 C          4.1585996039       -1.4567070314       -0.7528918978
 N          4.2276454795       -0.1906390295       -0.1997352193
 C          5.3917939392        0.4404971892        0.2643814182
 C          5.7067667889        1.7256593264       -0.1680134995
 C          6.8522561009        2.3468900523        0.2941612869
 C          7.6932780220        1.6920600588        1.1788988874
 C          7.3820589139        0.4120254720        1.6072504026
 C          6.2338759802       -0.2142265814        1.1584402462
 C          2.9640572580        0.3527147437       -0.1969642928
 C          2.5307236792        1.5740719255        0.3076012452
 C          1.1852538130        1.8854641236        0.2481217287
 H          2.4064952666        3.8459017884        1.8173767188
 H          1.1830898423        5.0754939544        1.6123526402
 H          2.1141864970        4.5282553897        0.2085436683
 H         -0.7733144062        1.9456985291        2.1073439116
 H          0.7510664333        2.3461992856        2.8980074471
 H         -0.4990619550        3.5840481358        2.6999909308
 H         -0.1673597070        5.7216488543        0.1319565498
 H         -2.1012942502        6.3727497212       -1.1957221137
 H         -3.6070634369        4.6507982083       -2.1338969649
 H         -3.1285362026        2.2625085325       -1.7369274432
 H         -6.1277474936       -2.1532858209        0.5604757297
 H         -8.5498962674       -1.6665149899        0.5721154476
 H         -9.3521238828        0.6244177892        0.1260647954
 H         -7.7298819628        2.4297865307       -0.3219834280
 H         -5.3083516985        1.9432249467       -0.3298270683
 H          0.1448813159       -2.6231624180        0.5364445814
 H          1.0156448959       -4.9153628072        0.7889137366
 H         -0.5492529002       -6.8175516700        0.9951249492
 H         -2.9835426244       -6.4174076414        0.9419374551
 H         -3.8550587863       -4.1215118853        0.6616677387
 H          0.0358057015       -0.8876696290       -1.3979433926
 H          1.4702598663       -3.1709194801       -1.9669203889
 H          3.2649084371       -4.8315285006       -2.3420730978
 H          5.5864734376       -4.3190817821       -1.7548408099
 H          6.1974631363       -2.1573454894       -0.7424955418
 H          5.0610266776        2.2213733192       -0.8777854831
 H          7.0934597461        3.3428994034       -0.0460002563
 H          8.5895055780        2.1779235163        1.5330526453
 H          8.0324632234       -0.0997918971        2.3006065634
 H          5.9745507600       -1.2022304733        1.5083030473
 H          3.2391807260        2.2400634587        0.7710582162
  78
  -120.376115070000       0.371693253972476      !
 C          1.7108111025        4.2028419264        1.2418837131
 C          0.6390828031        3.1413036270        0.9914932175
 C          0.0623496614        2.7041815043        2.3562530558
 C         -0.5127166227        3.6613235417        0.1519576769
 C         -0.7772601822        5.0070709556       -0.0485358303
 C         -1.8970056196        5.4189662379       -0.7517737652
 C         -2.7727170225        4.4832117884       -1.2728357237
 C         -2.5214859880        3.1355420379       -1.1028156465
 C         -1.4014429851        2.7242357553       -0.3904384572
 N         -1.0894015366        1.3655319704       -0.2517352557
 C         -2.0156877378        0.3634903559       -0.0602026464
 N         -3.2941646134        0.6017881481       -0.2187181695
 C         -4.1485578416       -0.4452045833        0.0575289052
 C         -5.5599119397       -0.2258524672       -0.0463800395
 C         -6.4625057329       -1.2852223477        0.1429944420
 C         -7.8173546970       -1.0753251079        0.0254727542
 C         -8.3110252516        0.1873681937       -0.2801514635
 C         -7.4281368774        1.2437600779       -0.4616382202
 C         -6.0699495470        1.0472983316       -0.3471290451
 N         -3.6800673408       -1.6430400348        0.3706343550
 C         -2.3803883429       -1.8493791289        0.4676407608
 C         -1.8463572624       -3.1552006709        0.7145923423
 C         -0.4571733517       -3.3539372116        0.7748844444
 C          0.0569046357       -4.6148921664        0.9797958392
 C         -0.7915510959       -5.7025471178        1.1404440621
 C         -2.1681956359       -5.5147590610        1.0918127238
 C         -2.6949263441       -4.2612333849        0.8783819647
 N         -1.5090256807       -0.7965611226        0.3334564822
 C          0.2618997367        1.0175701060       -0.2641895457
 C          0.6627138437       -0.1714391943       -0.8731678138
 C          1.9953929675       -0.5308022772       -0.8032632613
 C          2.7352870313       -1.6738983721       -1.2597736892
 C          2.3690247690       -2.8669855031       -1.8665379691
 C          3.3555550040       -3.7957308546       -2.1373246723
 C          4.6846396134       -3.5522953597       -1.7982000317
 C          5.0703954819       -2.3748460511       -1.1841979103
 C          4.0876364993       -1.4304905507       -0.9262042887
 N          4.1874225858       -0.2048895811       -0.2921566401
 C          5.3748173988        0.3780375434        0.1756848362
 C          6.4758384888        0.4898729121       -0.6683544389
 C          7.6453989898        1.0615098566       -0.2024714071
 C          7.7234829486        1.5313589089        1.0983060309
 C          6.6271805965        1.4229738614        1.9381115905
 C          5.4558266368        0.8451682636        1.4844471432
 C          2.9288634543        0.3415396889       -0.1983904003
 C          2.5351814547        1.5687415062        0.3244884997
 C          1.1930063988        1.9024562872        0.3141054338
 H          2.4924760023        3.8066452896        1.8846590727
 H          1.2796233786        5.0568761021        1.7568797862
 H          2.1547168677        4.5371529462        0.3068324419
 H         -0.6952160867        1.9345899787        2.2339915773
 H          0.8557891983        2.3063422120        2.9854631261
 H         -0.3908945737        3.5566729636        2.8575910936
 H         -0.1135798972        5.7572930168        0.3492612276
 H         -2.0841644383        6.4735026356       -0.8872976266
 H         -3.6456151088        4.7998865133       -1.8228615833
 H         -3.1829874908        2.3928600272       -1.5159994458
 H         -6.0691034034       -2.2622802909        0.3774509516
 H         -8.5034093026       -1.8981458477        0.1698456388
 H         -9.3751547252        0.3461955725       -0.3736360297
 H         -7.8105680027        2.2281403177       -0.6930196357
 H         -5.3788282238        1.8654213153       -0.4786414704
 H          0.1955822133       -2.5024263250        0.6579135000
 H          1.1282890636       -4.7567349261        1.0157904410
 H         -0.3845327501       -6.6895138471        1.3035537651
 H         -2.8285911247       -6.3608854225        1.2190386856
 H         -3.7616201967       -4.1047386664        0.8322677606
 H         -0.0412472542       -0.7863616499       -1.4070663772
 H          1.3358325349       -3.0646419827       -2.1066023308
 H          3.0944592905       -4.7303841125       -2.6099134172
 H          5.4302050137       -4.3033512558       -2.0120299094
 H          6.0987624893       -2.2062067968       -0.9024273947
 H          6.4018918052        0.1423745142       -1.6880670352
 H          8.4967538530        1.1469464191       -0.8609639229
 H          8.6371606826        1.9796183760        1.4573481089
 H          6.6867218507        1.7813889734        2.9549182209
 H          4.6069438645        0.7333136190        2.1427395535
 H          3.2733825153        2.2332535649        0.7407437573
  78
  -120.375288600000       0.155012016138088      !
 C          1.7749109193        4.2139826142        1.2430598325
 C          0.6741105090        3.1782233476        1.0104301443
 C          0.1077407663        2.7550246581        2.3836621230
 C         -0.4801020991        3.7274217812        0.1907550735
 C         -0.7164898126        5.0792214799       -0.0025172654
 C         -1.8444366737        5.5196736356       -0.6756305412
 C         -2.7637877444        4.6079884132       -1.1635104276
 C         -2.5428191922        3.2542121817       -1.0008487458
 C         -1.4059349892        2.8148005946       -0.3335862168
 N         -1.1141226737        1.4520510610       -0.2220236596
 C         -2.0339615347        0.4433082729       -0.0182396466
 N         -3.3069428119        0.6218312943       -0.2574466907
 C         -4.1289884591       -0.4539790193        0.0157996224
 C         -5.5380464613       -0.3159450946       -0.2019164169
 C         -6.3975805626       -1.4105252967       -0.0106750081
 C         -7.7475650157       -1.2863097510       -0.2461356892
 C         -8.2799053712       -0.0761629925       -0.6746914214
 C         -7.4413668989        1.0154515787       -0.8570909845
 C         -6.0885425707        0.9044804791       -0.6245072469
 N         -3.6325400413       -1.6177893296        0.4104310442
 C         -2.3342725480       -1.7590483861        0.5928424761
 C         -1.7474334439       -3.0253511252        0.9190214274
 C         -0.3533234853       -3.1407782025        1.0455719288
 C          0.2217575514       -4.3603115047        1.3240580016
 C         -0.5707762136       -5.4877815242        1.4942338854
 C         -1.9520558398       -5.3819899295        1.3801550560
 C         -2.5391957344       -4.1703505541        1.0925048070
 N         -1.5044131533       -0.6745000549        0.4639918827
 C          0.2290379860        1.0798744110       -0.2590998598
 C          0.5859469187       -0.1186541887       -0.8793779178
 C          1.9099260879       -0.5112393780       -0.8382846596
 C          2.6041981545       -1.6823313868       -1.2925980269
 C          2.1951918542       -2.8475181457       -1.9255806971
 C          3.1520549019       -3.7921278648       -2.2429430442
 C          4.4967372596       -3.5794200652       -1.9476626011
 C          4.9241530769       -2.4311111590       -1.3058654410
 C          3.9649490930       -1.4907536055       -0.9602912042
 N          4.1124106703       -0.2655208218       -0.3326214145
 C          5.3213580088        0.2654493906        0.1416148416
 C          5.7009887862        1.5595707842       -0.2021916573
 C          6.8932873639        2.0758599366        0.2709125929
 C          7.7165228530        1.3073293908        1.0772923580
 C          7.3408364205        0.0180193188        1.4170232192
 C          6.1459000692       -0.5038204994        0.9576843322
 C          2.8780703640        0.3345142496       -0.2498599431
 C          2.5207721162        1.5515626261        0.3224931662
 C          1.1895325231        1.9291203353        0.3217625359
 H          2.5589807533        3.7985351154        1.8705351051
 H          1.3735058554        5.0769925738        1.7671568281
 H          2.2087246528        4.5395451869        0.3001417913
 H         -0.6608089399        1.9944717298        2.2731225231
 H          0.9034305427        2.3494084022        3.0049449236
 H         -0.3283989220        3.6157437231        2.8862832897
 H         -0.0241581376        5.8126969019        0.3773673069
 H         -2.0061124810        6.5787322971       -0.8087671108
 H         -3.6475663861        4.9486222199       -1.6809524595
 H         -3.2354802927        2.5249424738       -1.3858633517
 H         -5.9742455188       -2.3470385208        0.3180433777
 H         -8.3992278138       -2.1362663506       -0.0996292051
 H         -9.3395842824        0.0149679090       -0.8625021155
 H         -7.8541442313        1.9595774163       -1.1844550927
 H         -5.4338179275        1.7513403881       -0.7586631508
 H          0.2540991979       -2.2577148007        0.9186130960
 H          1.2968095411       -4.4386290617        1.4097429503
 H         -0.1163213610       -6.4423554575        1.7149462717
 H         -2.5682926647       -6.2596951946        1.5146080710
 H         -3.6098762991       -4.0785994286        0.9941692605
 H         -0.1433806118       -0.7159329508       -1.3990453825
 H          1.1540985379       -3.0063097055       -2.1599101246
 H          2.8580262168       -4.7067804892       -2.7349352445
 H          5.2230368685       -4.3284513202       -2.2252760696
 H          5.9701908678       -2.2721630538       -1.0920417245
 H          5.0691743768        2.1445555328       -0.8540083813
 H          7.1847420034        3.0795838027        0.0000531148
 H          8.6490609608        1.7119125427        1.4396760840
 H          7.9770940513       -0.5827190482        2.0494144008
 H          5.8363066860       -1.4989738355        1.2399398327
 H          3.2746934802        2.1639031156        0.7880954598
