34
 energy: -60.215490066043 gnorm: 0.000080472088 xtb: 6.7.1 (edcfbbe)
C           -2.66741528847391       -3.72012851298837       -0.04796102232361
C           -1.31002855583354       -3.60292384221164       -0.31900823856745
C           -0.70678559668678       -2.36232242741724       -0.36539140157690
C           -1.44694923103755       -1.20200452353190       -0.11771072305041
C           -2.83273237477229       -1.33165405065988        0.10459455260236
C           -3.43001436558436       -2.58391711867817        0.14801135964100
O           -3.64010871419140       -0.24973760827536        0.26255009691913
C           -3.07721503171475        0.98626196164009        0.20311179994387
C           -3.92398949942657        2.07555565304915        0.36028029495266
C           -3.40893320490518        3.35756351884333        0.36104000196959
C           -2.03877845549770        3.54997538628033        0.23233700890024
C           -1.18983356940445        2.47445898359624        0.06893568487155
C           -1.69177139328210        1.17076186560808        0.01952706061841
N           -0.87457550277381        0.06083482091860       -0.14141078341143
C            0.51412615853060        0.19764249937159       -0.30947371116808
C            1.02570089680571        0.95804301512952       -1.35759964983731
C            2.39080537160980        1.10316698223773       -1.53590810622810
C            3.27085566514387        0.50486560780696       -0.61876025184792
N            4.59217784758511        0.58075088098196       -0.62271503775391
S            5.15617907623189       -0.32174922474748        0.67673010025044
N            3.69291505104256       -0.79277935084991        1.26788666544593
C            2.73799418454505       -0.28061624914215        0.47481748089639
C            1.37141560884337       -0.44218205718274        0.62028090764284
H           -3.13327440239698       -4.69178705488985       -0.01213592756001
H           -0.71714387012798       -4.48392530892270       -0.50734347955878
H            0.34254068288227       -2.27987843594071       -0.59791759267186
H           -4.49133696099523       -2.63702577006650        0.32937069604659
H           -4.97777958451899        1.88714401826534        0.48758379707256
H           -4.06894562600531        4.20168445499054        0.47949016980803
H           -1.62660715900958        4.54609224713382        0.26466530955554
H           -0.12669853305898        2.63317559845831       -0.01019724171722
H            0.34482936100557        1.40376725279434       -2.06778959104824
H            2.78782574554200        1.64618991539106       -2.37865031800228
H            0.96836883741500       -0.97380097416082        1.46773399131266
