  59
        -96.60489477
 C          0.6525287794        3.6415746774        1.9216414238
 C         -0.1524409016        2.5980391199        2.3464693630
 C          0.2213165678        1.2891045803        2.1178245496
 C          1.4101865388        0.9689874581        1.4508105719
 C          2.2263294789        2.0363986595        1.0624368953
 C          1.8448039867        3.3510731446        1.2874396942
 S          3.8018524534        1.8032848856        0.3040623610
 C          3.7817392374        0.0744172631       -0.0451115005
 C          4.8223067729       -0.3976120342       -0.8328101846
 C          4.8966914557       -1.7319859107       -1.1803153158
 C          3.9047923815       -2.5940212442       -0.7426218112
 C          2.8658602118       -2.1267994744        0.0360593296
 C          2.7784409379       -0.7834931673        0.4182407745
 N          1.7258250851       -0.3643626838        1.2205076556
 C          0.6527121151       -1.2831952155        1.4010127270
 C          0.6240527772       -2.2773050796        2.3540228298
 C         -0.4795144535       -3.1329058237        2.3989377851
 C         -1.5407693509       -2.9772568110        1.4777264811
 C         -2.6648300876       -3.8054201958        1.3770919241
 C         -3.6350190940       -3.5796063329        0.4008809967
 C         -3.5432328055       -2.5108286755       -0.4674995896
 C         -2.4554359777       -1.6389444053       -0.3680178300
 N         -2.2807645201       -0.4362226589       -1.1141946272
 C         -1.0280097749       -0.3465335710       -1.6968176788
 C         -0.4761307075       -1.5146861578       -2.2554857328
 C          0.8014961626       -1.5381029722       -2.7590100899
 C          1.5814995303       -0.3847339689       -2.7515781351
 C          1.0386056582        0.7912298640       -2.2788873180
 C         -0.2555321163        0.8232246683       -1.7742109807
 S         -0.8369867893        2.3684200982       -1.1956920522
 C         -2.4991219999        1.9879236792       -0.7598364047
 C         -3.2820733083        3.0714559603       -0.3737634092
 C         -4.5789269186        2.8880441098        0.0559116187
 C         -5.0913789349        1.5996714931        0.1210435483
 C         -4.3184922366        0.5220236069       -0.2571328333
 C         -3.0088011587        0.6826858788       -0.7234703242
 C         -1.4179881432       -1.8966017258        0.5586101210
 N         -0.3477885073       -1.1088741989        0.5245927278
 H          0.3628676694        4.6667624320        2.0882459181
 H         -1.0815468990        2.7990181527        2.8580055849
 H         -0.4153613511        0.4919251386        2.4651358501
 H          2.5042278260        4.1405722956        0.9602604131
 H          5.5721383946        0.3039982777       -1.1662519805
 H          5.7125442519       -2.0899230975       -1.7881773060
 H          3.9347147122       -3.6391272104       -1.0098595353
 H          2.0956688668       -2.8094148365        0.3562997277
 H          1.4455066233       -2.3887339024        3.0452100097
 H         -0.5304493224       -3.9142396469        3.1407433556
 H         -2.7542063526       -4.6524328639        2.0405798371
 H         -4.4697910867       -4.2598755395        0.3197772996
 H         -4.2803949111       -2.3652104373       -1.2433355927
 H         -1.0755473787       -2.4120086021       -2.2476704695
 H          1.2037334475       -2.4572386914       -3.1563178196
 H          2.5951584801       -0.4060155523       -3.1193688254
 H          1.6121190708        1.7064346102       -2.2812079244
 H         -2.8434493308        4.0572661005       -0.4107978325
 H         -5.1791464708        3.7350188574        0.3484339478
 H         -6.0983332962        1.4324286438        0.4710705361
 H         -4.7231541753       -0.4729252258       -0.1810103567
