  59
        -96.68393105
 C          0.2356896686        3.4004941052       -0.7171268803
 C         -0.2705989248        2.3621952035       -1.4818649404
 C          0.3288962366        1.1169147467       -1.4532616123
 C          1.4433411297        0.8997337972       -0.6544379755
 C          1.9655918956        1.9550486450        0.0842296166
 C          1.3606440030        3.2017638048        0.0603944783
 S          3.4277763411        1.7061397442        1.0566008407
 C          4.2318323515        0.5375596209       -0.0066528596
 C          5.6147898544        0.5349269885       -0.1088715720
 C          6.2428229886       -0.3706711508       -0.9439242201
 C          5.4892187257       -1.2515592254       -1.7033192555
 C          4.1091710321       -1.2460595838       -1.6094258781
 C          3.4686542093       -0.3755720649       -0.7339759775
 N          2.0678935585       -0.3702559852       -0.6034590872
 C          1.3299034108       -1.4594110240       -0.2236799139
 C          1.9159243328       -2.7339888225        0.0190444711
 C          1.1155622436       -3.7533367289        0.4394723900
 C         -0.2645170422       -3.5317623072        0.6662928132
 C         -1.1647103300       -4.5032229688        1.1379454180
 C         -2.4693384396       -4.1720896812        1.3939185122
 C         -2.9290549297       -2.8600519071        1.2018832120
 C         -2.0814522901       -1.8930560663        0.7298943262
 N         -2.5115613421       -0.5486286765        0.5332000371
 C         -2.9774624587       -0.2379097119       -0.7435732112
 C         -3.0505234274       -1.2257765317       -1.7275816944
 C         -3.5336741477       -0.9526699045       -2.9944783912
 C         -3.9460598092        0.3241001468       -3.3269182268
 C         -3.8718233160        1.3209859686       -2.3704443055
 C         -3.4061500748        1.0440762342       -1.0960543554
 S         -3.4055054142        2.3764223342        0.0687584497
 C         -2.1957028143        1.7798123045        1.2141002618
 C         -1.5667666035        2.7244741946        2.0062136978
 C         -0.6877981353        2.3363737918        3.0004140767
 C         -0.4746789760        0.9873268066        3.2119589225
 C         -1.0925440149        0.0445691430        2.4113523005
 C         -1.9362883800        0.4157320960        1.3633777894
 C         -0.7326345406       -2.2157082408        0.4314374741
 N          0.0515561123       -1.2333224590       -0.0271811795
 H         -0.2417527042        4.3679530224       -0.7320453525
 H         -1.1391786151        2.5188086222       -2.1023342620
 H         -0.0725965175        0.3021699884       -2.0338339089
 H          1.7753274336        4.0004545139        0.6555938979
 H          6.1846032687        1.2402449071        0.4758554414
 H          7.3195384678       -0.3792848612       -1.0116748348
 H          5.9752068270       -1.9432502671       -2.3741795982
 H          3.5146477249       -1.9183811707       -2.2105289749
 H          2.9775627320       -2.8773586424       -0.1035423509
 H          1.5295919977       -4.7338401541        0.6301996752
 H         -0.8083227448       -5.5099348559        1.3034502244
 H         -3.1572200625       -4.9191555982        1.7596589332
 H         -3.9548795244       -2.6079961285        1.4258943992
 H         -2.7261647660       -2.2277472073       -1.4956512301
 H         -3.5811177885       -1.7479365042       -3.7234309269
 H         -4.3217076880        0.5456480531       -4.3135736960
 H         -4.1895001993        2.3282230438       -2.5959705953
 H         -1.7913557967        3.7674977461        1.8428061622
 H         -0.1978053894        3.0770652246        3.6124498388
 H          0.1774720682        0.6571811011        4.0066370104
 H         -0.9182737130       -1.0006505011        2.6103934711
