  49
        -89.52482679
 C          8.6858210118       -1.9915713666       -0.2651929688
 O          8.1018390389       -0.7256105035       -0.0703278675
 C          6.7520700935       -0.6213933351       -0.0410459323
 C          6.2404778157        0.6718688258        0.1544889698
 C          4.8922058914        0.8905274583        0.1967722066
 C          3.9680396303       -0.1718730230        0.0456710961
 C          2.5801178303        0.0634455650        0.0801622703
 C          1.5205860115       -0.8509400666       -0.0339087676
 C          0.2582763040       -0.3186116196        0.0647382919
 C         -0.9606552070       -1.1008990575        0.0633845583
 C         -2.0206553482       -0.7966917114        0.9246286987
 C         -3.1729162092       -1.5527817087        0.9130892803
 C         -3.2858643437       -2.6299361375        0.0411319104
 C         -4.5254214198       -3.4706925114        0.0380763615
 F         -5.6172262038       -2.8098538007        0.4529783465
 F         -4.4149986866       -4.5458914577        0.8525796782
 F         -4.8211228784       -3.9663844376       -1.1760302336
 C         -2.2306495582       -2.9638132874       -0.8023462266
 C         -1.0807343331       -2.2056143819       -0.7870290304
 C          0.2865112628        1.1213919602        0.1883325968
 C         -0.7615940263        2.0119522615        0.0727347252
 N         -2.0495365705        1.6929446632       -0.1615846250
 C         -2.7206703802        2.8520059896       -0.2060088035
 C         -4.0847690939        3.0915968258       -0.4185835683
 C         -4.5115818834        4.3994091970       -0.4260155204
 C         -3.6273874052        5.4670975357       -0.2289390096
 C         -2.2729264901        5.2631283682       -0.0158898384
 C         -1.8290028998        3.9559196088       -0.0041974355
 N         -0.6009160337        3.3925199651        0.1648789361
 S          1.9424620460        1.7001761794        0.3047287519
 C          4.5017754941       -1.4666422808       -0.1473992073
 C          5.8568470832       -1.6857698565       -0.1889203327
 H          8.4165567009       -2.6854642747        0.5371665809
 H          8.3990335377       -2.4212111590       -1.2301490694
 H          9.7616003913       -1.8250822267       -0.2510522288
 H          6.9421733437        1.4826960427        0.2698178950
 H          4.5119678154        1.8899549977        0.3472998035
 H          1.6964575757       -1.9070189069       -0.1335592093
 H         -1.9252369144        0.0179298850        1.6220460189
 H         -3.9896497934       -1.3115074714        1.5758504025
 H         -2.3242726882       -3.8053104320       -1.4720980042
 H         -0.2733092736       -2.4479813587       -1.4613060769
 H         -4.7600705228        2.2653855371       -0.5679925348
 H         -5.5569841215        4.6168223980       -0.5871583925
 H         -4.0120810155        6.4757799157       -0.2435429487
 H         -1.5960036422        6.0905549407        0.1343661374
 H          0.2725870073        3.8654627268        0.3204169964
 H          3.8346185469       -2.3053115745       -0.2660875184
 H          6.2183599279       -2.6913092401       -0.3374098278
