  49
  -89.2336138407000       0.195933778312848      !
 C          8.7066407509       -1.9757159976       -0.1201995733
 O          8.1149445307       -0.7071895842        0.0294543263
 C          6.7650421023       -0.6035569770        0.0030861804
 C          6.2460401499        0.6917464727        0.1623384787
 C          4.8970409120        0.9090538521        0.1568332563
 C          3.9791020198       -0.1568649240       -0.0085680589
 C          2.5903792540        0.0747130859       -0.0011805676
 C          1.5347660210       -0.8444251992       -0.1199835628
 C          0.2710687966       -0.3187109808       -0.0103536958
 C         -0.9447844353       -1.1066975970        0.0037826541
 C         -1.9800279622       -0.8219150541        0.9015102581
 C         -3.1258724095       -1.5861163728        0.9117940669
 C         -3.2575477601       -2.6526895624        0.0272608256
 C         -4.5174020880       -3.4619142511        0.0659138039
 F         -4.5636547561       -4.4317739247       -0.8595427093
 F         -5.6204171418       -2.7109790238       -0.1208520726
 F         -4.6948861346       -4.0747647098        1.2563415758
 C         -2.2306706661       -2.9621675836       -0.8568678400
 C         -1.0846433388       -2.1959121337       -0.8619398545
 C          0.2917967651        1.1201001309        0.1226196179
 C         -0.7667103541        2.0014879022        0.0359730822
 N         -2.0556538689        1.6699450127       -0.1744867385
 C         -2.7412784765        2.8212215278       -0.1879231181
 C         -4.1130305494        3.0465796419       -0.3640025687
 C         -4.5560845229        4.3487438776       -0.3391821979
 C         -3.6806095661        5.4243700459       -0.1460297612
 C         -2.3187192167        5.2345282274        0.0298534708
 C         -1.8585020494        3.9331135108        0.0097695360
 N         -0.6199240397        3.3825899515        0.1416952264
 S          1.9448968245        1.7086134858        0.2233402592
 C          4.5204674719       -1.4523722210       -0.1745463215
 C          5.8764023238       -1.6702068423       -0.1668968334
 H          9.7809883951       -1.8080460511       -0.0650616427
 H          8.4052166634       -2.6560886890        0.6825357169
 H          8.4596124684       -2.4221754988       -1.0885364434
 H          6.9427711517        1.5050614371        0.2891506117
 H          4.5111666809        1.9098761205        0.2812471318
 H          1.7146899259       -1.8990737453       -0.2277564926
 H         -1.8681906320       -0.0172193485        1.6079965472
 H         -3.9241434331       -1.3663679989        1.6043258123
 H         -2.3370948711       -3.7922367385       -1.5385248320
 H         -0.2961610448       -2.4213725073       -1.5639951816
 H         -4.7813908198        2.2140090273       -0.5091395581
 H         -5.6078647498        4.5552567119       -0.4701471901
 H         -4.0779506492        6.4282105495       -0.1351514503
 H         -1.6485356321        6.0682272746        0.1756968285
 H          0.2509686561        3.8637166981        0.2862445992
 H          3.8584660064       -2.2930154929       -0.3071907450
 H          6.2437978404       -2.6765544511       -0.2942297116
  49
  -89.2334720008000       0.168625872024524      !
 C          8.6707248447       -1.9189059497        0.5626045439
 O          8.0855417297       -0.6802662034        0.2393116692
 C          6.7359910193       -0.5833669231        0.1889019017
 C          6.2238670341        0.6806247406       -0.1464627345
 C          4.8756595059        0.8892647898       -0.2251313853
 C          3.9524650955       -0.1547851933        0.0255804799
 C          2.5644810705        0.0706300749       -0.0536644404
 C          1.5052946982       -0.8342224939        0.1193521413
 C          0.2428938024       -0.3167567161       -0.0435531016
 C         -0.9709372138       -1.1049213436       -0.0026196066
 C         -1.0902331035       -2.1555075879        0.9150679305
 C         -2.2291804322       -2.9277723400        0.9598850552
 C         -3.2747071590       -2.6652223290        0.0788029528
 C         -4.4946622727       -3.5322470995        0.1334246310
 F         -5.5348292747       -3.0421690922       -0.5557260323
 F         -4.9335816118       -3.7329873155        1.3902180070
 F         -4.2650329093       -4.7669872453       -0.3696324184
 C         -3.1652861445       -1.6399544945       -0.8530687344
 C         -2.0234429598       -0.8685366044       -0.8936071613
 C          0.2710629435        1.1089803441       -0.2828714703
 C         -0.7735435609        2.0099788660       -0.2396905936
 N         -2.0656827917        1.7184215331        0.0062283559
 C         -2.7257778198        2.8843636435       -0.0287853474
 C         -4.0880011292        3.1512438438        0.1624096840
 C         -4.5013352543        4.4610354593        0.0838679667
 C         -3.6059085191        5.5051068933       -0.1787208894
 C         -2.2532091380        5.2741446591       -0.3735522628
 C         -1.8228283104        3.9644688579       -0.2987062585
 N         -0.6000496858        3.3798324575       -0.4255272110
 S          1.9280617729        1.6791378885       -0.4295377053
 C          4.4864089053       -1.4191889124        0.3631401189
 C          5.8415220930       -1.6281646828        0.4424478276
 H          9.7462296168       -1.7530794652        0.5334823812
 H          8.3828744887       -2.2492007405        1.5654427652
 H          8.4038166321       -2.6908392401       -0.1657747267
 H          6.9250294303        1.4768030892       -0.3401746386
 H          4.4949321116        1.8656462781       -0.4855275110
 H          1.6827978787       -1.8780122607        0.3069735456
 H         -0.2910899466       -2.3429495715        1.6160771745
 H         -2.3234967682       -3.7274808464        1.6791898123
 H         -3.9739055547       -1.4518937644       -1.5423309428
 H         -1.9301065299       -0.0952057468       -1.6368335693
 H         -4.7724606463        2.3436040813        0.3628097258
 H         -5.5449459305        4.6988671211        0.2267530808
 H         -3.9803146444        6.5164099681       -0.2301274522
 H         -1.5669201200        6.0830640896       -0.5737635835
 H          0.2794319881        3.8327910679       -0.6047826845
 H          3.8195649275       -2.2414369019        0.5675543212
 H          6.2034451079       -2.6097886175        0.7057971292
  49
  -89.2334553334000       0.165677831611788      !
 C          8.6762399903       -1.9330522974       -0.2988968694
 O          8.0793424203       -0.6779424639       -0.0759783045
 C          6.7287980529       -0.5836086007       -0.0636747814
 C          6.2067015037        0.6983959981        0.1738227639
 C          4.8568319244        0.9065113557        0.2097245848
 C          3.9413627806       -0.1554846349        0.0099231348
 C          2.5521501580        0.0716137369        0.0484984122
 C          1.4946767385       -0.8397058724       -0.1019754512
 C          0.2300136343       -0.3158158311        0.0193124989
 C         -0.9799384503       -1.1115949322       -0.0001092098
 C         -1.0824589526       -2.2041851580       -0.8687916373
 C         -2.2083892076       -2.9986744563       -0.8798843250
 C         -3.2563213936       -2.7144581456       -0.0116561227
 C         -4.4826795834       -3.5737557482        0.0224733396
 F         -4.5624492246       -4.3023276984        1.1583239151
 F         -4.5485057544       -4.4566666202       -0.9856101105
 F         -5.6216287464       -2.8581821859       -0.0276189226
 C         -3.1671717694       -1.6387350369        0.8673157113
 C         -2.0409230858       -0.8455124792        0.8728876882
 C          0.2549538361        1.1180626751        0.2004130233
 C         -0.7837176890        2.0230710259        0.1155529503
 N         -2.0775540573        1.7370088423       -0.1267547795
 C         -2.7222835794        2.9121584077       -0.1504748505
 C         -4.0785319184        3.1895112820       -0.3688399361
 C         -4.4734228385        4.5073150800       -0.3544824678
 C         -3.5663491965        5.5500748134       -0.1282779639
 C         -2.2194890824        5.3092819516        0.0926468387
 C         -1.8075301067        3.9916220937        0.0802599598
 N         -0.5944587455        3.3975135089        0.2459685693
 S          1.9109903045        1.6948719111        0.3399670670
 C          4.4852822392       -1.4377038743       -0.2311889417
 C          5.8423751832       -1.6464703260       -0.2659705082
 H          9.7503239509       -1.7606301229       -0.2523460351
 H          8.3919405431       -2.6551064108        0.4728698877
 H          8.4160704433       -2.3315374216       -1.2846252481
 H          6.9016020768        1.5088288263        0.3265639039
 H          4.4685450243        1.8971500920        0.3938515229
 H          1.6742916261       -1.8904067610       -0.2437016257
 H         -0.2789291817       -2.4118418165       -1.5591309213
 H         -2.2828578042       -3.8328546622       -1.5609021218
 H         -3.9830835512       -1.4346655784        1.5439515353
 H         -1.9650556049       -0.0309087821        1.5727131851
 H         -4.7727461957        2.3837744855       -0.5414488333
 H         -5.5115579338        4.7532895051       -0.5215730093
 H         -3.9265566415        6.5678482714       -0.1272110885
 H         -1.5233683720        6.1163370769        0.2646472647
 H          0.2894250070        3.8481939650        0.4087899873
 H          3.8246097454       -2.2748515836       -0.3905249668
 H          6.2125402109       -2.6429251675       -0.4506125778
  49
  -89.2334401246000       0.163032775206291      !
 C          8.6937357610       -1.9605672560       -0.2351701936
 O          8.1046254626       -0.6955836801       -0.0496173212
 C          6.7544195624       -0.5962555506       -0.0236788267
 C          6.2375946738        0.6963050238        0.1625113163
 C          4.8884309545        0.9101606916        0.2007168586
 C          3.9685562690       -0.1566565824        0.0546310168
 C          2.5796962235        0.0736593969        0.0848589133
 C          1.5238284437       -0.8454178738       -0.0254187455
 C          0.2593380114       -0.3172153980        0.0672996802
 C         -0.9566487864       -1.1040724301        0.0685706384
 C         -2.0195046573       -0.7983192525        0.9257382242
 C         -3.1688991536       -1.5587944339        0.9167870016
 C         -3.2760635038       -2.6419518712        0.0515619629
 C         -4.5124532051       -3.4873647047        0.0514668173
 F         -5.6075553668       -2.8279804210        0.4599429694
 F         -4.3996348933       -4.5568799397        0.8730937386
 F         -4.8038622934       -3.9919634819       -1.1600056256
 C         -2.2179173760       -2.9772777521       -0.7876584421
 C         -1.0708839647       -2.2146782416       -0.7749477502
 C          0.2819298250        1.1236493054        0.1816744652
 C         -0.7692710661        2.0095010156        0.0582700516
 N         -2.0555372943        1.6841531257       -0.1765391127
 C         -2.7309187004        2.8403734175       -0.2297542387
 C         -4.0954768791        3.0734620068       -0.4465670305
 C         -4.5271709111        4.3795856723       -0.4632650193
 C         -3.6473795724        5.4518360876       -0.2713179893
 C         -2.2925935197        5.2543349962       -0.0542792570
 C         -1.8437996388        3.9489066567       -0.0332909323
 N         -0.6139517145        3.3912271331        0.1418403349
 S          1.9354639265        1.7093916807        0.2976187572
 C          4.5075252524       -1.4506251109       -0.1290410484
 C          5.8634888052       -1.6649192436       -0.1664680180
 H          8.4254661454       -2.6502925819        0.5711063545
 H          8.4104939203       -2.3974797296       -1.1979054805
 H          9.7688533139       -1.7899473721       -0.2199724818
 H          6.9360148751        1.5104895517        0.2740053864
 H          4.5041501665        1.9090991488        0.3440528029
 H          1.7038548866       -1.9014471472       -0.1179184117
 H         -1.9285365220        0.0211241251        1.6180830014
 H         -3.9878572063       -1.3163346598        1.5763628321
 H         -2.3070449576       -3.8234112430       -1.4521616914
 H         -0.2612071862       -2.4583397888       -1.4460506322
 H         -4.7673772998        2.2437738666       -0.5919890624
 H         -5.5730554427        4.5920261880       -0.6278734591
 H         -4.0358196848        6.4589502821       -0.2931782477
 H         -1.6190779449        6.0852499300        0.0919851488
 H          0.2574598419        3.8684411141        0.2960584347
 H          3.8437543668       -2.2925427014       -0.2436467803
 H          6.2290633468       -2.6700266646       -0.3077636149
  49
  -89.2332742835000       0.136791662809155      !
 C          8.6298991469       -2.0818170077        0.0656747565
 O          8.0725431721       -0.7891076290        0.0767522642
 C          6.7270508428       -0.6537982512        0.0055873381
 C          6.2360005064        0.6605031446        0.0722694148
 C          4.8925716121        0.9077247424        0.0284367477
 C          3.9532048985       -0.1457442930       -0.0893373271
 C          2.5691506704        0.1095387657       -0.1021756922
 C          1.5040801842       -0.8008570107       -0.2046272838
 C          0.2458761321       -0.2651469520       -0.0855731407
 C         -0.9653132107       -1.0615659683       -0.0593134792
 C         -1.1022958002       -2.1440881209       -0.9349389143
 C         -2.2285566665       -2.9366508351       -0.9069016498
 C         -3.2411674469       -2.6599847373        0.0066967991
 C         -4.4439532138       -3.5513120279        0.0527595996
 F         -4.2070247490       -4.6893538480        0.7455742246
 F         -4.8476362191       -3.9496443845       -1.1667965223
 F         -5.5091735188       -2.9827611061        0.6368478591
 C         -3.1130272453       -1.5995521734        0.8964157171
 C         -1.9848203885       -0.8079455861        0.8633382384
 C          0.2780470307        1.1729364117        0.0461352582
 C         -0.7775434707        2.0616196660        0.0164224188
 N         -2.0785110897        1.7382491287       -0.1198908576
 C         -2.7580748082        2.8922804445       -0.0790192724
 C         -4.1376325401        3.1241175517       -0.1603826295
 C         -4.5731305414        4.4270930329       -0.0891455812
 C         -3.6822613321        5.4974888206        0.0567668380
 C         -2.3123620608        5.3011787829        0.1389403049
 C         -1.8594876810        3.9985568835        0.0739345317
 N         -0.6177933933        3.4414322809        0.1236688273
 S          1.9384917538        1.7516724847        0.0975292215
 C          4.4676831742       -1.4602127743       -0.1755118188
 C          5.8170897402       -1.7079658605       -0.1253253458
 H          9.7037827444       -1.9410863628        0.1767242509
 H          8.2560611220       -2.6862648235        0.8979927344
 H          8.4286361832       -2.5977098837       -0.8784781458
 H          6.9494611987        1.4640413974        0.1632513442
 H          4.5274744334        1.9223586691        0.0862302368
 H          1.6727136048       -1.8575051781       -0.3097038185
 H         -0.3265138180       -2.3438340038       -1.6586850819
 H         -2.3363728114       -3.7626045732       -1.5937706156
 H         -3.8973543255       -1.4002685103        1.6102606934
 H         -1.8753124758       -0.0058520118        1.5729881806
 H         -4.8175350329        2.2954812555       -0.2702703435
 H         -5.6306706998        4.6382529250       -0.1442967732
 H         -4.0742123908        6.5021583441        0.1079554582
 H         -1.6311387743        6.1310925187        0.2513980883
 H          0.2622408172        3.9175685274        0.2218511152
 H          3.7893014091       -2.2923233438       -0.2734751893
 H          6.1626155395       -2.7279962019       -0.1889705204
  49
  -89.2329069493000       9.273517991344428E-002 !
 C          8.6820572132       -1.7153369628        0.8771414225
 O          8.0913290536       -0.5425112605        0.3699590963
 C          6.7497257477       -0.5064860354        0.1901419062
 C          6.2219345721        0.7219984642       -0.2388792491
 C          4.8761938929        0.8789501261       -0.4164522776
 C          3.9720409580       -0.1844740115       -0.1782906243
 C          2.5817828961        0.0102184622       -0.2958366097
 C          1.5325205728       -0.9054991815       -0.1171020874
 C          0.2644590453       -0.3896335599       -0.2343061824
 C         -0.9588322841       -1.1591567130       -0.1624222573
 C         -2.0480117292       -0.8627167742       -0.9906711334
 C         -3.2157012107       -1.5886087298       -0.9017108264
 C         -3.3174485011       -2.6263343743        0.0185920422
 C         -4.5810417728       -3.4250604417        0.1122218108
 F         -5.6742286926       -2.7307858732       -0.2412666597
 F         -4.8153888873       -3.8959019250        1.3491640382
 F         -4.5606837303       -4.5122672056       -0.6931741441
 C         -2.2340778537       -2.9554410870        0.8276316388
 C         -1.0674585360       -2.2291156212        0.7330365703
 C          0.2831116351        1.0430701407       -0.4361425546
 C         -0.7526186370        1.9388010096       -0.2637373122
 N         -2.0156895887        1.6299262883        0.0883041940
 C         -2.6707577150        2.7948664886        0.1908794089
 C         -4.0027738079        3.0476245957        0.5443411108
 C         -4.4125449119        4.3597426797        0.5996864868
 C         -3.5434996074        5.4192247381        0.3113042472
 C         -2.2216428010        5.2022257459       -0.0444901928
 C         -1.7946310251        3.8906072642       -0.1026745577
 N         -0.5938841753        3.3166221504       -0.3898891660
 S          1.9289420370        1.6166904527       -0.6572740080
 C          4.5249351114       -1.4235856755        0.2164778451
 C          5.8774318708       -1.5794753528        0.3996345354
 H          8.2649581091       -1.9828673164        1.8530367297
 H          8.5641079000       -2.5565978132        0.1870916530
 H          9.7408527838       -1.4873154275        0.9882490315
 H          6.9076835291        1.5356518915       -0.4141299291
 H          4.4822995000        1.8314351309       -0.7384227981
 H          1.7212823575       -1.9513877227        0.0472377974
 H         -1.9635021847       -0.0772824022       -1.7224771804
 H         -4.0546804947       -1.3524296711       -1.5380901551
 H         -2.3191165184       -3.7667834651        1.5347270003
 H         -0.2382478128       -2.4662274255        1.3821647036
 H         -4.6666905856        2.2278500260        0.7639428318
 H         -5.4320983522        4.5873486661        0.8731417214
 H         -3.9134495147        6.4317373695        0.3703731431
 H         -1.5549243141        6.0228391595       -0.2625548614
 H          0.2667207763        3.7816641213       -0.6221763715
 H          3.8740485028       -2.2654124667        0.3910015920
 H          6.2547473937       -2.5412274563        0.7107064067
  49
  -89.2327337195000       7.720290012195065E-002 !
 C          8.6780853242       -1.7164806736       -0.8055153744
 O          8.0875470194       -0.5456044614       -0.2937501932
 C          6.7443265590       -0.5050022699       -0.1275072030
 C          6.2194200695        0.7160579641        0.3255526199
 C          4.8726735020        0.8772912269        0.4928636377
 C          3.9657104196       -0.1757651846        0.2236192247
 C          2.5748042190        0.0213264961        0.3329576394
 C          1.5280014969       -0.8978229498        0.1605905160
 C          0.2585993499       -0.3810755692        0.2595473909
 C         -0.9616860488       -1.1555063138        0.2060648409
 C         -1.0598234168       -2.2610627706       -0.6463230881
 C         -2.2181726829       -3.0042501017       -0.7113824396
 C         -3.3008236849       -2.6612134331        0.0915253967
 C         -4.5811460599       -3.4344591467        0.0125866755
 F         -5.5165741545       -2.8080625157       -0.7333116572
 F         -5.1478162260       -3.6272489087        1.2181934565
 F         -4.4341941000       -4.6537478688       -0.5311339725
 C         -3.2149483189       -1.5765473077        0.9591705278
 C         -2.0568410187       -0.8334810639        1.0173613777
 C          0.2764994440        1.0562488860        0.4297525174
 C         -0.7530612833        1.9457446948        0.1996277419
 N         -2.0030324864        1.6215520340       -0.1843366341
 C         -2.6533114616        2.7808378188       -0.3565189972
 C         -3.9696959447        3.0178365534       -0.7739433824
 C         -4.3754135540        4.3262537755       -0.9004471993
 C         -3.5180277667        5.3972655652       -0.6196608183
 C         -2.2121829823        5.1960580298       -0.2007819353
 C         -1.7886447831        3.8882893085       -0.0726271870
 N         -0.5999019530        3.3272495330        0.2829549325
 S          1.9193989062        1.6322717670        0.6690233016
 C          4.5148759056       -1.4076589454       -0.1969981300
 C          5.8679501388       -1.5667979396       -0.3730200477
 H          9.7422289426       -1.4998784618       -0.8830856507
 H          8.5304762168       -2.5683278368       -0.1345261078
 H          8.2853575968       -1.9612767899       -1.7974560950
 H          6.9082001336        1.5212102255        0.5263526328
 H          4.4805335929        1.8243889675        0.8325993582
 H          1.7194388859       -1.9464271069        0.0183698708
 H         -0.2285501129       -2.5148612034       -1.2863868554
 H         -2.2911667675       -3.8465857186       -1.3824684348
 H         -4.0565264324       -1.3274362222        1.5874113109
 H         -1.9828251900       -0.0147348326        1.7129286402
 H         -4.6238255857        2.1891097704       -0.9891865109
 H         -5.3818520975        4.5417478904       -1.2271515117
 H         -3.8838844663        6.4062837511       -0.7364722159
 H         -1.5544108480        6.0256389189        0.0105317869
 H          0.2527240857        3.8021346681        0.5246955256
 H          3.8605641096       -2.2403305886       -0.4002050153
 H          6.2424915836       -2.5234490382       -0.7028598739
