71
 energy: -110.304922732888 gnorm: 0.000143246490 xtb: 6.7.1 (edcfbbe)
C           -5.17653293593004        3.52965215083327       -0.04444140157228
C           -3.85117149401654        3.84341569237421        0.16630438792610
C           -2.88552614003815        2.82934779544618        0.26006579961824
C           -1.47110987151192        3.06823615796418        0.42677595055079
C           -0.90157933580512        4.28228817064064        0.77587929363410
C            0.48451376613459        4.37694731417367        0.91397444802874
C            1.28195336286667        3.26330648334985        0.69265924789377
C            0.70028099039947        2.04873399122194        0.33905592671102
C            1.41915669525664        0.84373982338952        0.03305839162170
C            0.70030897582659       -0.27875733779696       -0.43691727591794
C            1.34034952322145       -1.44960877361499       -0.76194531744066
C            2.71804199297553       -1.56639975484926       -0.63174516942816
C            3.44356638574580       -0.47256358060385       -0.14928398980621
N            4.83722291915428       -0.57573443745150       -0.00339572119240
C            5.50593053636667       -1.57969092317524        0.66154332764486
C            4.99739435374834       -2.66682957939982        1.36003974351065
C            5.89866155218488       -3.52466397225922        1.96127686469798
C            7.27241862684244       -3.30794741457341        1.88255212151037
C            7.78382237596693       -2.21412759607156        1.20886267877052
C            6.89922694648660       -1.33911127976155        0.59619615856799
C            7.06595017413406       -0.12298469031430       -0.15238583450811
C            8.17337013836880        0.60894531105657       -0.55413218993649
C            7.97342696705215        1.75570698425161       -1.30034471283769
C            6.69082176179926        2.16484720326018       -1.65812518515314
C            5.57198925506223        1.45232607969226       -1.27050508459590
C            5.76485594580884        0.31286893741134       -0.50021002471880
C            2.80806250440596        0.70965879165453        0.18136903276643
N           -0.65018746322550        2.01387999030439        0.23803488059376
C           -3.31790717953909        1.49807434874025        0.16012793895973
C           -4.64641573012096        1.18986236766772       -0.06228685537600
N           -5.02869228877426       -0.15470093435660       -0.19073406235753
C           -6.07990737709856       -0.76835761685351        0.45537521791490
C           -6.97956689910881       -0.24701642723925        1.37585266172651
C           -7.93746034936986       -1.09720090856688        1.89491399141923
C           -7.99994289369643       -2.43749651031917        1.52121283143117
C           -7.08986311181693       -2.96970020792373        0.62700564520783
C           -6.11918991748560       -2.13586856888619        0.09206141787446
C           -5.02641991474466       -2.34638285870211       -0.81788082036136
C           -4.55608999408367       -3.45595197467008       -1.50491561220891
C           -3.45535268299612       -3.30724325978401       -2.32795759381487
C           -2.84051760659998       -2.06731630936002       -2.48555144964735
C           -3.29436834251973       -0.94675053749720       -1.81626066929648
C           -4.37947244897571       -1.09615930616962       -0.96183070779654
C           -5.59204399411088        2.21130151436250       -0.17404422142508
H           -5.90608397107613        4.32209888075116       -0.12835812717613
H           -3.55767007508286        4.87899537043752        0.24006376873497
H           -1.53217483794651        5.13663432832660        0.96180324344713
H            0.93487561720716        5.31837032931271        1.18847813429352
H            2.35521300659403        3.33580048635299        0.77082061374227
H           -0.37086112104565       -0.19205930287624       -0.53797493040731
H            0.76836458584150       -2.28939251779909       -1.12969989912414
H            3.23167438656466       -2.47136898757427       -0.91557449324335
H            3.93355990340893       -2.83028867171442        1.43910133704807
H            5.52961418420873       -4.37983234948743        2.50779470542010
H            7.94460462191519       -4.00234847571155        2.36411998694410
H            8.84813563793806       -2.03964986745461        1.16193763954295
H            9.16901783051095        0.28518593465584       -0.29099221395001
H            8.82247701643173        2.34098043441655       -1.62051281016804
H            6.56834520636628        3.05651593226751       -2.25492569241937
H            4.58198796628757        1.76433574595546       -1.56664245656945
H            3.39861214491704        1.51852753339459        0.58344663236700
H           -2.59140869841400        0.70988965188247        0.28608504487238
H           -6.92570373745309        0.78470018267394        1.68760481429396
H           -8.65067595865745       -0.71470462670546        2.60994697929286
H           -8.76516865980126       -3.06920939928780        1.94698823899193
H           -7.12760119429660       -4.01297789638250        0.35211808510428
H           -5.04312277003016       -4.41339186504150       -1.39748619063402
H           -3.07008591565621       -4.16024101674257       -2.86654905315712
H           -1.99258628361168       -1.97725342589773       -3.14833788770874
H           -2.82562616882856        0.01397687313619       -1.96445774581954
H           -6.62320364445316        1.97545069255111       -0.38521840042993
