  106
  -170.588206392100       0.431473914325253      !
 C          5.2023026690       -6.6432759150        0.0227811341
 C          6.1953918236       -5.7099934390        0.2759682075
 C          5.8798507892       -4.3683019611        0.3669848939
 C          4.5605954661       -3.9491786074        0.2049867033
 C          4.2256390018       -2.5276284037        0.2981478201
 N          5.2370734408       -1.6600938032        0.4440015234
 C          4.8898093191       -0.3821185160        0.5909590975
 C          5.9344355857        0.6247074008        0.7641351069
 C          5.6144349346        1.8735497254        1.2907450822
 C          6.5885174066        2.8452891291        1.4048048431
 C          7.8852127251        2.5801779109        0.9932063960
 C          8.2095241763        1.3352809381        0.4766114332
 C          7.2405357363        0.3570825094        0.3643424749
 N          3.6416927310        0.0357726646        0.5596949727
 C          2.6849932719       -0.8706785910        0.2998178152
 C          1.3421748515       -0.4321981907        0.0905843125
 C          0.2797924331       -1.3360896047        0.2423035271
 C         -1.0335086686       -0.9361410547        0.1767133937
 N         -2.0490409549       -1.8582838248        0.4355493034
 C         -3.0638318021       -1.7067407274        1.3625605021
 C         -3.2755640328       -0.6875500711        2.2797984586
 C         -4.3981629047       -0.7679733674        3.0823285755
 C         -5.2769289350       -1.8442381209        2.9958356158
 C         -5.0413988277       -2.8878118087        2.1199527582
 C         -3.9231042347       -2.8263113687        1.3030900159
 C         -3.3743572185       -3.7067442095        0.3058781782
 C         -3.7606429689       -4.9385445745       -0.1980201028
 C         -2.9936555726       -5.5154814413       -1.1947741130
 C         -1.8630149324       -4.8731428712       -1.6952492750
 C         -1.4595411898       -3.6430184696       -1.2114161537
 C         -2.2152351628       -3.0675660585       -0.1977525729
 C         -1.3478741220        0.4282251544       -0.1081286759
 C         -2.6896052280        0.8668789180       -0.3203891344
 N         -3.6532605830       -0.0408939569       -0.5508267638
 C         -4.8999116144        0.3815184108       -0.5716863853
 C         -5.9519259741       -0.6261009827       -0.6881655250
 C         -5.6565255238       -1.8843165541       -1.2063585611
 C         -6.6360071887       -2.8560179101       -1.2603759533
 C         -7.9123908765       -2.5821146545       -0.7947517645
 C         -8.2121871618       -1.3280264205       -0.2857088506
 C         -7.2385650442       -0.3493380130       -0.2352588854
 N         -5.2399960104        1.6646629306       -0.4591746839
 C         -4.2226799450        2.5313539435       -0.3528752820
 C         -4.5487412486        3.9573235486       -0.3113888916
 C         -3.5447811125        4.9033057158       -0.1109662837
 C         -3.8585841325        6.2475643399       -0.0742956309
 C         -5.1720435456        6.6607973368       -0.2369998864
 C         -6.1739083688        5.7239221246       -0.4367917785
 C         -5.8675807496        4.3775572752       -0.4740222239
 N         -2.9539541425        2.1857804175       -0.2613210334
 C         -0.2849615077        1.3322931472       -0.2589947664
 C          1.0280694535        0.9332311304       -0.1883996963
 N          2.0451919409        1.8570730616       -0.4353299144
 C          3.0669675588        1.7107531070       -1.3551606806
 C          3.2827379336        0.6993360067       -2.2800567423
 C          4.4115715546        0.7839810741       -3.0734805705
 C          5.2929290630        1.8566021006       -2.9701036484
 C          5.0546389036        2.8920673124       -2.0851804162
 C          3.9300158919        2.8263636192       -1.2775220176
 C          3.3771867531        3.6983641818       -0.2751677195
 C          3.7662798582        4.9217368910        0.2467066589
 C          2.9954499880        5.4899317047        1.2455103560
 C          1.8578654884        4.8474266263        1.7297018061
 C          1.4512410681        3.6257434237        1.2273814706
 C          2.2114690193        3.0588120587        0.2123972516
 N          2.9551851688       -2.1865208341        0.2098107541
 C          3.5653570050       -4.8915767691       -0.0485524008
 C          3.8883307190       -6.2312051596       -0.1387556476
 H          5.4521146300       -7.6919554994       -0.0484206208
 H          7.2185041173       -6.0326400987        0.4040155515
 H          6.6389421363       -3.6280702617        0.5665506522
 H          4.6022210835        2.0627724784        1.6129921722
 H          6.3350209684        3.8128764199        1.8127272879
 H          8.6454002873        3.3434739489        1.0768842956
 H          9.2218993999        1.1303339387        0.1600284945
 H          7.4720887872       -0.6160096574       -0.0405151896
 H          0.5232142719       -2.3556228048        0.4996462206
 H         -2.5967283597        0.1489333160        2.3536587036
 H         -4.5975227445        0.0221806257        3.7910036824
 H         -6.1495012148       -1.8650173363        3.6312352056
 H         -5.7145598628       -3.7297586010        2.0667652422
 H         -4.6428324791       -5.4322731292        0.1802465073
 H         -3.2760443416       -6.4762785769       -1.5988840951
 H         -1.2918089733       -5.3458152142       -2.4803320583
 H         -0.5908014886       -3.1433217137       -1.6115266629
 H         -4.6595045315       -2.0816516369       -1.5687680814
 H         -6.4020777363       -3.8309739034       -1.6622560409
 H         -8.6761759505       -3.3454804831       -0.8310351758
 H         -9.2090399178       -1.1158482552        0.0722965436
 H         -7.4513415165        0.6315237172        0.1608057458
 H         -2.5281657160        4.5649582499        0.0159373215
 H         -3.0785750208        6.9787683876        0.0815371424
 H         -5.4145409080        7.7131930304       -0.2089016421
 H         -7.1968135234        6.0473451747       -0.5655806488
 H         -6.6336283144        3.6343603481       -0.6326341652
 H         -0.5282163278        2.3519201207       -0.5159502947
 H          2.6019464480       -0.1342810939       -2.3671288078
 H          4.6137362212        0.0001053412       -3.7883496449
 H          6.1700534302        1.8809325958       -3.5991187581
 H          5.7302595842        3.7310877773       -2.0183635560
 H          4.6540236237        5.4151227127       -0.1187788704
 H          3.2803622084        6.4437034666        1.6642173097
 H          1.2835800800        5.3131539181        2.5166534712
 H          0.5768472330        3.1258527720        1.6147426473
 H          2.5483391082       -4.5540317864       -0.1740533488
 H          3.1152126447       -6.9596690224       -0.3359559311
  106
  -170.588092811700       0.382610255664841      !
 C          5.1449961335       -6.6491793067       -0.2014463790
 C          6.1558516893       -5.7282862719        0.0254666617
 C          5.8543961236       -4.3879206973        0.1692449848
 C          4.5315446712       -3.9576843236        0.0856259101
 C          4.2096976122       -2.5371918878        0.2284798283
 N          5.2286866341       -1.6788879750        0.3768203850
 C          4.8904469571       -0.4047825300        0.5694643756
 C          5.9420447574        0.5941749007        0.7466884218
 C          7.2322569178        0.3437126889        0.2888035871
 C          8.2039208650        1.3194768918        0.3988802993
 C          7.8985786934        2.5440186249        0.9722675898
 C          6.6183804019        2.7912202359        1.4423341382
 C          5.6409590583        1.8226540499        1.3291822419
 N          3.6443205485        0.0210890525        0.5744724914
 C          2.6793117519       -0.8719007226        0.3016265962
 C          1.3369028254       -0.4235466403        0.1105411574
 C          0.2747694702       -1.3289143210        0.2550637264
 C         -1.0389686182       -0.9304908089        0.1931460167
 N         -2.0505761253       -1.8563497592        0.4542282409
 C         -3.0517452145       -1.7183314721        1.3980385084
 C         -3.2680826799       -0.6973183363        2.3118275356
 C         -4.3722539524       -0.7966042813        3.1374389412
 C         -5.2286949095       -1.8923600271        3.0760000139
 C         -4.9888947267       -2.9357694854        2.2012451803
 C         -3.8891173500       -2.8553150529        1.3611952014
 C         -3.3415373471       -3.7309619084        0.3590315323
 C         -3.7120296946       -4.9732497841       -0.1308640394
 C         -2.9522135293       -5.5404340368       -1.1386838339
 C         -1.8441139319       -4.8785704239       -1.6636855868
 C         -1.4561339382       -3.6382266421       -1.1936467123
 C         -2.2043734807       -3.0721782934       -0.1689973189
 C         -1.3548941914        0.4332275694       -0.0925103159
 C         -2.6940992860        0.8681182905       -0.3206905958
 N         -3.6623095735       -0.0435309198       -0.5149291063
 C         -4.9069075789        0.3829655960       -0.5553454782
 C         -5.9634815226       -0.6249508663       -0.6157905506
 C         -5.6781424992       -1.9056941308       -1.0811963957
 C         -6.6596663575       -2.8767855771       -1.0755995834
 C         -7.9280952837       -2.5794168794       -0.6031301137
 C         -8.2187040036       -1.3024117699       -0.1490797012
 C         -7.2430625838       -0.3244979086       -0.1581995841
 N         -5.2407188177        1.6718744964       -0.5110690395
 C         -4.2186249889        2.5373182958       -0.4446382164
 C         -4.5350831632        3.9652607838       -0.4954106104
 C         -5.8440845984        4.3823963785       -0.7293774153
 C         -6.1397628545        5.7302469651       -0.7897288442
 C         -5.1373584618        6.6715989379       -0.6157013855
 C         -3.8339699898        6.2614080511       -0.3808334256
 C         -3.5305214544        4.9157066542       -0.3212363709
 N         -2.9535923676        2.1899346474       -0.3207712551
 C         -0.2918581335        1.3401219751       -0.2303501336
 C          1.0217125072        0.9448880836       -0.1500435173
 N          2.0365868512        1.8802656988       -0.3635158971
 C          3.0739556925        1.7658740300       -1.2699143818
 C          3.3078575452        0.7857390339       -2.2236735129
 C          4.4515325621        0.8965151110       -2.9918780317
 C          5.3296820549        1.9654962963       -2.8366512371
 C          5.0726032220        2.9723705972       -1.9247420622
 C          3.9329106326        2.8799731543       -1.1411625838
 C          3.3604783898        3.7185912661       -0.1216324814
 C          3.7352990538        4.9267627512        0.4443866058
 C          2.9435138398        5.4627395200        1.4444941155
 C          1.7991890143        4.8028199341        1.8874970005
 C          1.4070835390        3.5952706451        1.3416907786
 C          2.1883664107        3.0613267843        0.3248463428
 N          2.9401341194       -2.1863283716        0.1742837503
 C          3.5183653836       -4.8879068338       -0.1415064792
 C          3.8270824215       -6.2262319023       -0.2832447992
 H          5.3838453570       -7.6967186600       -0.3141899020
 H          7.1822010140       -6.0594920511        0.0898206540
 H          6.6278027674       -3.6571584848        0.3476122462
 H          7.4489152824       -0.6130328976       -0.1606619090
 H          9.2032763597        1.1287542846        0.0354919044
 H          8.6607910041        3.3053252588        1.0547496157
 H          6.3802126917        3.7426382167        1.8951351130
 H          4.6408109444        1.9989581208        1.6939349064
 H          0.5190278225       -2.3502461451        0.5042537223
 H         -2.6062800365        0.1540761005        2.3665122777
 H         -4.5743941530       -0.0064244055        3.8452647602
 H         -6.0866376688       -1.9285262632        3.7303139495
 H         -5.6442092755       -3.7926193567        2.1672707217
 H         -4.5764886117       -5.4829025637        0.2667613121
 H         -3.2229501203       -6.5088073349       -1.5325276554
 H         -1.2787932080       -5.3438779676       -2.4573619809
 H         -0.6050838533       -3.1235151933       -1.6123064976
 H         -4.6877495740       -2.1209165566       -1.4513053432
 H         -6.4335360635       -3.8691244570       -1.4375191209
 H         -8.6930054920       -3.3423919425       -0.5914120276
 H         -9.2093359073       -1.0722578608        0.2151990901
 H         -7.4480339468        0.6734586144        0.1976066585
 H         -6.6102868382        3.6354512415       -0.8677324007
 H         -7.1548090492        6.0511666663       -0.9735206704
 H         -5.3713366946        7.7251301872       -0.6645880073
 H         -3.0534293989        6.9959866694       -0.2455515625
 H         -2.5214386729        4.5802244270       -0.1394383569
 H         -0.5357766408        2.3613218045       -0.4802092165
 H          2.6301645477       -0.0454705353       -2.3495170256
 H          4.6689097726        0.1358816027       -3.7270061515
 H          6.2195989351        2.0096111256       -3.4461472247
 H          5.7459224989        3.8090151594       -1.8178683941
 H          4.6280118610        5.4336180769        0.1110071993
 H          3.2172608695        6.4041001944        1.8972489756
 H          1.2083794693        5.2430525903        2.6768944258
 H          0.5271319721        3.0815124971        1.6968762999
 H          2.4984020924       -4.5421018022       -0.2045637580
 H          3.0397488930       -6.9449971357       -0.4585611388
  106
  -170.586857477900       0.103522916863534      !
 C          5.1063703319       -6.4647971520        1.8605015039
 C          6.1308760517       -5.5809129663        1.5598886522
 C          5.8399255741       -4.2885830711        1.1686884234
 C          4.5140347725       -3.8690749151        1.0764803717
 C          4.2060115618       -2.5016544104        0.6552445933
 N          5.2393972606       -1.6861479445        0.3987596976
 C          4.9208905930       -0.4857562972       -0.0835726510
 C          5.9922279128        0.4527914635       -0.4124661979
 C          5.7563210557        1.4927083763       -1.3073530965
 C          6.7515451446        2.4117519283       -1.5749938743
 C          7.9836465067        2.3030415513       -0.9501588853
 C          8.2249749473        1.2631302590       -0.0659288408
 C          7.2360522006        0.3361697542        0.2006243851
 N          3.6814902919       -0.0810360408       -0.2576994825
 C          2.6897457010       -0.8937300354        0.1504544795
 C          1.3464353247       -0.4194356122        0.1411979930
 C          0.2793779040       -1.3241395035        0.2952070652
 C         -1.0292219583       -0.9314271509        0.1715986672
 N         -2.0511561579       -1.8660933667        0.3863691733
 C         -3.0878397934       -1.7331370167        1.2893946421
 C         -3.3378635811       -0.7180676054        2.2015675355
 C         -4.4771487970       -0.8181670597        2.9779949426
 C         -5.3371446818       -1.9075657213        2.8688134781
 C         -5.0686238464       -2.9426468545        1.9922904865
 C         -3.9332837894       -2.8618991141        1.2009051949
 C         -3.3562065376       -3.7235181215        0.2040009045
 C         -3.7209540589       -4.9507244033       -0.3270411022
 C         -2.9340840076       -5.5006805818       -1.3233417919
 C         -1.8026734595       -4.8375163570       -1.7954709740
 C         -1.4177006134       -3.6141690946       -1.2817200074
 C         -2.1949710622       -3.0641915214       -0.2695650927
 C         -1.3429982771        0.4232264179       -0.1474160688
 C         -2.6722736672        0.8491383619       -0.4335554971
 N         -3.6252549753       -0.0717370316       -0.6672030918
 C         -4.8704256269        0.3411297565       -0.7642616580
 C         -5.9131570557       -0.6752581178       -0.8919630356
 C         -5.5954530711       -1.9430800835       -1.3712954510
 C         -6.5695504354       -2.9195504626       -1.4378860973
 C         -7.8623228727       -2.6405258258       -1.0238964932
 C         -8.1841444328       -1.3764234946       -0.5548014880
 C         -7.2159970087       -0.3930349849       -0.4922242965
 N         -5.2221270013        1.6255461656       -0.7220931333
 C         -4.2117150457        2.5018174429       -0.6238647407
 C         -4.5450747391        3.9256868360       -0.6815387359
 C         -5.8655682553        4.3258914861       -0.8783509708
 C         -6.1795450534        5.6697455155       -0.9364654442
 C         -5.1835537618        6.6240877710       -0.7999707742
 C         -3.8683646354        6.2308772249       -0.6048349011
 C         -3.5471446817        4.8891768405       -0.5450830533
 N         -2.9480550534        2.1674908499       -0.4612920866
 C         -0.2824749299        1.3474195449       -0.1860560084
 C          1.0248289959        0.9592842315       -0.0354106565
 N          2.0344555141        1.9312475960       -0.0337187905
 C          2.2686814475        2.8474750730       -1.0296495820
 C          1.6143157078        3.0170636379       -2.2437344447
 C          2.0745803226        4.0078714449       -3.0894148737
 C          3.1610760101        4.8103708888       -2.7456261793
 C          3.8256890557        4.6368607108       -1.5446956359
 C          3.3834924053        3.6487084977       -0.6792689920
 C          3.8342033444        3.1774833302        0.6029936630
 C          4.8771726299        3.5395528325        1.4414461164
 C          5.0309720088        2.8588800861        2.6351135504
 C          4.1463183848        1.8494713009        3.0048356512
 C          3.0971063108        1.4743990481        2.1866114513
 C          2.9650445374        2.1249375630        0.9683523080
 N          2.9397930488       -2.1500842071        0.5684143623
 C          3.4874195225       -4.7615408403        1.3801479339
 C          3.7858179773       -6.0525177110        1.7691344603
 H          5.3367836510       -7.4752604077        2.1654264912
 H          7.1594609522       -5.9036726234        1.6300971414
 H          6.6239968687       -3.5881197438        0.9270800705
 H          4.7945128296        1.5609253718       -1.7914398926
 H          6.5640416340        3.2167153252       -2.2704883887
 H          8.7592473700        3.0267558569       -1.1552367992
 H          9.1877804411        1.1780658091        0.4164657809
 H          7.4033045437       -0.4775044280        0.8894133998
 H          0.5222230439       -2.3507907715        0.5224660597
 H         -2.6745842830        0.1293858616        2.2910114298
 H         -4.7053485371       -0.0329740151        3.6834766791
 H         -6.2228680522       -1.9441430788        3.4851159315
 H         -5.7299332089       -3.7924497141        1.9185105132
 H         -4.6029636020       -5.4608264382        0.0294318213
 H         -3.2005830106       -6.4563040783       -1.7499073637
 H         -1.2162453969       -5.2890674106       -2.5817254320
 H         -0.5471329790       -3.0988762837       -1.6575295267
 H         -4.5864526313       -2.1441199202       -1.6962201387
 H         -6.3187275891       -3.9014731747       -1.8115256798
 H         -8.6221363704       -3.4072222419       -1.0708723905
 H         -9.1938293739       -1.1599098345       -0.2374300089
 H         -7.4457926389        0.5954696166       -0.1256216812
 H         -6.6268606967        3.5691515607       -0.9862974022
 H         -7.2037531426        5.9773554425       -1.0896586595
 H         -5.4318787667        7.6744353717       -0.8464253620
 H         -3.0927314584        6.9755362114       -0.4996615771
 H         -2.5289787997        4.5667463452       -0.3929966530
 H         -0.5292738503        2.3873717140       -0.3353547057
 H          0.7796933888        2.3905355584       -2.5185674106
 H          1.5836741122        4.1631420287       -4.0385045829
 H          3.4895191269        5.5751762882       -3.4336128114
 H          4.6735230630        5.2523436800       -1.2849755668
 H          5.5568210529        4.3302212527        1.1624203341
 H          5.8440533742        3.1161644489        3.2972078554
 H          4.2827524553        1.3475571054        3.9513002210
 H          2.4144247774        0.6903016221        2.4787325765
 H          2.4651625515       -4.4252574069        1.3048795672
 H          2.9880458509       -6.7423414015        2.0034859480
  106
  -170.586641739200       8.239291314637225E-002 !
 C          5.1610898149       -6.5093898908        1.5960078648
 C          3.8367166964       -6.1024110675        1.5436688431
 C          3.5238057396       -4.8011290244        1.2033203239
 C          4.5396103407       -3.8927786919        0.9101988320
 C          4.2154541177       -2.5140719257        0.5412008436
 N          5.2384534395       -1.6856425305        0.2846567098
 C          4.9025565394       -0.4705221609       -0.1459799127
 C          5.9587987865        0.4888676782       -0.4637500866
 C          5.6920691256        1.5615849749       -1.3101297749
 C          6.6722733475        2.5003122712       -1.5643533362
 C          7.9201238475        2.3786631060       -0.9739127173
 C          8.1917688382        1.3069875117       -0.1376759654
 C          7.2178087134        0.3603963184        0.1149533465
 N          3.6573443929       -0.0678243296       -0.2769958443
 C          2.6796219281       -0.8998836119        0.1261015662
 C          1.3349209626       -0.4309633041        0.1568195319
 C          0.2711338646       -1.3405593466        0.3025973620
 C         -1.0393984075       -0.9473663738        0.1994163952
 N         -2.0574337072       -1.8859546239        0.4132563807
 C         -3.0761821059       -1.7699444438        1.3390356945
 C         -3.3147782863       -0.7656040810        2.2657068886
 C         -4.4325099735       -0.8858824134        3.0700432296
 C         -5.2826059399       -1.9841764084        2.9728078555
 C         -5.0252682495       -3.0078353481        2.0798694934
 C         -3.9112062020       -2.9070367601        1.2608443393
 C         -3.3475010776       -3.7549478103        0.2446009656
 C         -3.7105842059       -4.9821957153       -0.2876447343
 C         -2.9379759377       -5.5181178213       -1.3025251753
 C         -1.8222700994       -4.8409823824       -1.7919939227
 C         -1.4396845247       -3.6169673417       -1.2782833468
 C         -2.2025598056       -3.0807221548       -0.2478216825
 C         -1.3564643087        0.4103386748       -0.1043241375
 C         -2.6797447632        0.8400669878       -0.4057831117
 N         -3.6531965277       -0.0718346806       -0.5843140904
 C         -4.8890597613        0.3628511938       -0.7032468478
 C         -5.9558036996       -0.6360253862       -0.7508772996
 C         -5.6801089901       -1.9299602424       -1.1833806459
 C         -6.6748240925       -2.8877578327       -1.1714921087
 C         -7.9458149790       -2.5638536833       -0.7243310638
 C         -8.2262521560       -1.2734125264       -0.3029835449
 C         -7.2378346792       -0.3084430672       -0.3201045839
 N         -5.2120937761        1.6542744169       -0.7560437895
 C         -4.1805687020        2.5110184614       -0.7226258970
 C         -4.4730523833        3.9315623877       -0.9194631209
 C         -5.7818651021        4.3492431791       -1.1539015426
 C         -6.0542307167        5.6880139095       -1.3580395420
 C         -5.0280901286        6.6195485710       -1.3314488461
 C         -3.7244883031        6.2088441166       -1.0985628441
 C         -3.4447828285        4.8722361395       -0.8931745049
 N         -2.9281591894        2.1599633900       -0.5190861112
 C         -0.2982396768        1.3389217237       -0.1212456530
 C          1.0095264267        0.9523276879        0.0240479165
 N          2.0157134712        1.9257307904        0.0699719217
 C          2.2388026867        2.9015119222       -0.8708692143
 C          1.5733112767        3.1440260336       -2.0665239136
 C          2.0202040695        4.1899362391       -2.8508963034
 C          3.1056363556        4.9751628060       -2.4664169644
 C          3.7838389865        4.7273372956       -1.2862800456
 C          3.3543265234        3.6837418924       -0.4817704817
 C          3.8176657333        3.1374450813        0.7655975673
 C          4.8670432641        3.4519835092        1.6151126399
 C          5.0302876498        2.7049307721        2.7671221855
 C          4.1482662360        1.6760766093        3.0859744629
 C          3.0938169984        1.3465558403        2.2550178649
 C          2.9532358231        2.0636886408        1.0755781720
 N          2.9455210111       -2.1667382045        0.4986422814
 C          5.8693791242       -4.3070482596        0.9627294765
 C          6.1748518554       -5.6097876701        1.3053498343
 H          5.4028134805       -7.5280897559        1.8623253343
 H          3.0474084364       -6.8045288708        1.7699527358
 H          2.4984151787       -4.4688055240        1.1581325452
 H          4.7178351499        1.6404627127       -1.7671490559
 H          6.4608669017        3.3305546581       -2.2222875976
 H          8.6839721922        3.1177490566       -1.1679059202
 H          9.1667184075        1.2121634007        0.3178048475
 H          7.4087688180       -0.4783213093        0.7665175654
 H          0.5176468565       -2.3713686615        0.5059554874
 H         -2.6584878399        0.0881404385        2.3457728727
 H         -4.6511368678       -0.1103279559        3.7891245985
 H         -6.1512664645       -2.0370249093        3.6118058637
 H         -5.6785229451       -3.8645929963        2.0154701293
 H         -4.5798449001       -5.5039525306        0.0830158647
 H         -3.2034622360       -6.4735767427       -1.7300333203
 H         -1.2464392388       -5.2822466471       -2.5918022069
 H         -0.5814967629       -3.0909155491       -1.6674239372
 H         -4.6878254349       -2.1662188547       -1.5350390443
 H         -6.4567641326       -3.8902192372       -1.5095520721
 H         -8.7210498863       -3.3162345909       -0.7078724944
 H         -9.2191213336       -1.0220586279        0.0406461379
 H         -7.4359336093        0.7002989164        0.0082368884
 H         -6.5668193470        3.6093945305       -1.1767920438
 H         -7.0693736708        6.0092554549       -1.5406815984
 H         -5.2436594862        7.6655838926       -1.4940102765
 H         -2.9251996729        6.9354699876       -1.0791317718
 H         -2.4354820674        4.5367372962       -0.7127756234
 H         -0.5503246535        2.3812050703       -0.2413937904
 H          0.7397743139        2.5318196465       -2.3746153684
 H          1.5191229536        4.4029147693       -3.7833978223
 H          3.4230105860        5.7848751678       -3.1065960288
 H          4.6315580943        5.3290382806       -0.9955587665
 H          5.5435110777        4.2584998213        1.3766817118
 H          5.8484247286        2.9247312880        3.4364601364
 H          4.2910437843        1.1218460758        4.0018296108
 H          2.4130201735        0.5477482675        2.5089072045
 H          6.6448410853       -3.5941871029        0.7294534434
 H          7.2063352381       -5.9285074307        1.3448207963
