  55
        -91.12466749
 C         -0.0121626996       -0.6440999590        0.8368899671
 C         -0.0205556918       -1.8689027048       -0.0329630072
 C          1.1860062249       -2.4855766444       -0.3559345868
 C          2.4855566169       -1.8874064077        0.0031708941
 C          3.4166460030       -2.6175297932        0.7403061953
 C          4.6429145399       -2.0691827847        1.0529943945
 C          4.9774184235       -0.7883426985        0.6312746665
 C          4.0631657406       -0.0515687187       -0.1181324850
 C          2.8287506392       -0.6102723037       -0.4220985184
 O          4.2642039287        1.2109746003       -0.6040232492
 C          5.4397700116        1.8802619937       -0.4296731230
 C          5.5004966279        3.1374422633       -1.0243319428
 C          6.6360511270        3.9171778248       -0.9198886482
 C          7.7348323427        3.4485776546       -0.2172888616
 C          7.6853410754        2.2025500374        0.3772587338
 C          6.5460218696        1.4143975428        0.2783316998
 S          6.5711776641       -0.1627667572        1.0818258548
 C          1.2059635689       -3.7137678493       -1.0200249280
 C          0.0165421425       -4.3336286558       -1.3677792942
 C         -1.1820966711       -3.7314457491       -1.0682336242
 C         -1.2361052666       -2.4835528149       -0.4163079858
 C         -2.5340560850       -1.8999787598       -0.1677756459
 C         -3.6450322497       -2.7410128682        0.2006642708
 C         -4.8809405588       -2.2231906839        0.4193280665
 C         -5.1292599208       -0.8404267037        0.2913493682
 C         -4.0387164781        0.0112376499       -0.1083456525
 C         -2.7902056214       -0.5353338562       -0.3183841707
 O         -4.1564299910        1.3425435237       -0.3163225136
 C         -5.2975053151        2.0330742181       -0.1195024339
 C         -5.2291498242        3.4134841042       -0.3236049600
 C         -6.3325804132        4.2124369395       -0.1473163060
 C         -7.5620435703        3.6425553629        0.2406991377
 C         -7.6573152966        2.2908452751        0.4364542690
 C         -6.5417989422        1.4605367418        0.2712909268
 S         -6.7422528314       -0.2531044914        0.4635812115
 H          0.8476640866       -0.6657766532        1.5040901600
 H          0.0526372027        0.2707070442        0.2489878229
 H         -0.9195821953       -0.5971730624        1.4348540469
 H          3.1685330157       -3.6112665085        1.0799386614
 H          5.3642790181       -2.6258485286        1.6317927347
 H          2.1468856134       -0.0258448648       -1.0189293216
 H          4.6325054507        3.4782169825       -1.5663630178
 H          6.6614254839        4.8888301938       -1.3878808114
 H          8.6266981533        4.0490942882       -0.1310881243
 H          8.5297889710        1.8194953295        0.9297274733
 H          2.1544010433       -4.1691109181       -1.2624540098
 H          0.0329967141       -5.2843821421       -1.8804384080
 H         -2.1053618657       -4.1997203264       -1.3743389006
 H         -3.4721090730       -3.7952229411        0.3448117251
 H         -5.7060894079       -2.8571173033        0.7089866144
 H         -2.0155186083        0.1325207642       -0.6574200262
 H         -4.2777154143        3.8266457368       -0.6209418048
 H         -6.2607949888        5.2762166077       -0.3065463268
 H         -8.4254968427        4.2732969080        0.3790309384
 H         -8.5918869513        1.8345918692        0.7266020251
