  52
        -66.38813590
 C         -5.2097681020       -2.4151392975        0.2818856379
 C         -3.8837068175       -1.7230362316        0.1897844632
 C         -2.8988495304       -1.9611958046        1.1407256890
 C         -1.6642052935       -1.3402699354        1.0757161348
 C         -0.6460655054       -1.6211681790        2.1416973949
 C         -1.3746647663       -0.4315584559        0.0422617665
 B          0.0008391159        0.3225061206        0.0074585328
 C         -0.0070393375        1.8878920881        0.0092328987
 C         -1.0864379483        2.6107199742        0.5293357329
 C         -1.0937223899        3.9924840330        0.5323390235
 C         -0.0254273204        4.6933718328       -0.0041935662
 C          1.0529701161        4.0017522819       -0.5321390055
 C          1.0639357581        2.6200618535       -0.5155123718
 C          1.3810687538       -0.4217703777       -0.0371942742
 C          2.3767932884       -0.1863822956        0.9200021981
 C          2.1421470110        0.7065826960        2.1059023985
 C          3.6088171819       -0.8212626075        0.8292340208
 C          3.8984319355       -1.6959688506       -0.2032601405
 C          5.2251652814       -2.3867477680       -0.2947254553
 C          2.9118025859       -1.9337952134       -1.1518950340
 C          1.6734876297       -1.3205859079       -1.0783993488
 C          0.6558762364       -1.5983507174       -2.1458233189
 C         -2.3683134760       -0.1950672905       -0.9160569620
 C         -2.1376878061        0.7146064296       -2.0903418363
 C         -3.5964532034       -0.8392998060       -0.8352354874
 H         -5.0767778011       -3.4959386090        0.2447005819
 H         -5.8622457528       -2.1169365970       -0.5349599769
 H         -5.6992041036       -2.1734820464        1.2247942872
 H         -3.1044154625       -2.6512530840        1.9477100220
 H          0.2995829394       -1.9134187843        1.6935267450
 H         -0.4684756958       -0.7287715172        2.7394447381
 H         -0.9871700385       -2.4155789701        2.8014811470
 H         -1.9260434695        2.0695906691        0.9419308845
 H         -1.9359530976        4.5280756590        0.9470951693
 H         -0.0332250912        5.7736434642       -0.0102876631
 H          1.8883011715        4.5440826399       -0.9519886231
 H          1.9112913103        2.0859617189       -0.9213305362
 H          2.9309196255        1.4548306462        2.1760083951
 H          2.1639611863        0.1171774138        3.0232575207
 H          1.1851748406        1.2124756039        2.0404668624
 H          4.3559917771       -0.6238364002        1.5859592974
 H          5.9445644762       -1.9390514155        0.3865766575
 H          5.1177842276       -3.4407126750       -0.0368136401
 H          5.6179450081       -2.3311864451       -1.3085446529
 H          3.1187426074       -2.6150709066       -1.9659588294
 H         -0.2874855937       -1.9012201880       -1.6998851139
 H          1.0017042001       -2.3840380647       -2.8136378731
 H          0.4716178739       -0.7016342112       -2.7351839023
 H         -2.2291219332        0.1521444252       -3.0197566577
 H         -1.1548654243        1.1709049720       -2.0534075247
 H         -2.8884525603        1.5040859077       -2.1073435931
 H         -4.3411516634       -0.6422917230       -1.5944982149
