52
 energy: -66.310639490259 gnorm: 0.000044008884 xtb: 6.7.1 (edcfbbe)
C           -4.98106484340763       -2.72288299751562        0.00775157886123
C           -3.73324864389624       -1.89811860515486        0.00539158255891
C           -2.70416396126914       -2.17123104587109        0.90767414136300
C           -1.56360236809382       -1.39991117340598        0.96166573885766
C           -0.51506807408655       -1.70556011355897        1.98424792836161
C           -1.36844862854298       -0.33033942607971        0.03627570850621
B           -0.00119003125182        0.39886361648650       -0.00194208165181
C           -0.00513783487500        1.95690870230081        0.00428646957704
C           -1.05685343558362        2.68211931192705        0.59527811831668
C           -1.05793389413213        4.06038752280479        0.59893571725656
C           -0.01778447766796        4.77227069538658        0.01443178889261
C            1.02883509631141        4.07395523978862       -0.57498237887692
C            1.04046799783568        2.69574283963618       -0.58020370170951
C            1.37489975028508       -0.31567361512438       -0.04627678425974
C            2.43861286209258       -0.02118580172142        0.84968437571771
C            2.32645028610211        1.09416886162448        1.84273712464864
C            3.57274743838948       -0.80703714214052        0.86287251418375
C            3.74385758503083       -1.87445334471995       -0.01937744704228
C            4.98670479248040       -2.70613760269353        0.00325105868428
C            2.72104649853418       -2.14357016422131       -0.92804014469764
C            1.57825587848336       -1.37398350231439       -0.98193439727286
C            0.53754513547573       -1.67126913189768       -2.01461947849229
C           -2.43701561440898       -0.03525850875472       -0.85450580107144
C           -2.33277933463999        1.08808852205972       -1.83915984073317
C           -3.56953625540241       -0.82430116110812       -0.86879589736289
H           -4.74275072549155       -3.76997957895914       -0.18199794391704
H           -5.67884262252806       -2.37995717414731       -0.75236334875193
H           -5.47116664012561       -2.66974521805404        0.98058061367510
H           -2.82241836603043       -2.99369773863789        1.60085854612048
H            0.38812961577002       -2.07895680112582        1.50068734810661
H           -0.23900061677577       -0.80354232241947        2.52801747634523
H           -0.86610478197945       -2.45508610317181        2.69014956184027
H           -1.86688429618593        2.15047360906647        1.07442089827883
H           -1.87598324466514        4.59082586053557        1.06958421700161
H           -0.02249513937960        5.85285822079253        0.01847813407783
H            1.84194197444490        4.61517052183100       -1.04185886918004
H            1.85557793674750        2.17491094877832       -1.06260642438323
H            2.60092595546313        2.04577139985602        1.38629096107169
H            2.98525642214471        0.92091045475948        2.69141522348771
H            1.30087314048958        1.19295729423447        2.19285230318625
H            4.35613322980906       -0.58973069491142        1.57704093939187
H            5.81023594787350       -2.16654670572699        0.46563588791041
H            4.81242483878300       -3.61717200735591        0.57953785180784
H            5.27517638296926       -3.00189693484181       -1.00404596447663
H            2.84421263272653       -2.95926391284629       -1.62835809138541
H           -0.36806399995272       -2.05178823367780       -1.54105557034618
H            0.89489697490746       -2.41241394758131       -2.72615565804672
H            0.26276153991609       -0.76413045358902       -2.55057072369718
H           -2.99380143755083        0.91889084833702       -2.68695020129067
H           -1.30878374988173        1.19426900729034       -2.19174805599177
H           -2.60970713803676        2.03495389670073       -1.37424430532597
H           -4.35622404369855       -0.60274628175405       -1.57806243708680
