  52
        -66.28728721
 C         -4.9417438702       -2.7529886847        0.2658463553
 C         -3.7039799323       -1.9155770731        0.2222011942
 C         -2.6134694805       -2.1988730918        1.0414378528
 C         -1.4782896970       -1.4164057046        1.0303436943
 C         -0.3543371987       -1.7300319013        1.9650892121
 C         -1.3579821791       -0.3279903093        0.1159645921
 B         -0.0000841765        0.4029643461       -0.0052646605
 C         -0.0106129647        1.9618701722       -0.0019824543
 C         -1.0176958909        2.6805918542        0.6642941459
 C         -1.0224255259        4.0592362611        0.6660551862
 C         -0.0300937872        4.7713280681        0.0057840182
 C          0.9717335515        4.0766412171       -0.6586595620
 C          0.9859619549        2.6980150553       -0.6648368792
 C          1.3655367199       -0.3130456179       -0.1251225331
 C          2.4891151984       -0.0018472854        0.6876867520
 C          2.4401272341        1.1381507645        1.6566684978
 C          3.6162078320       -0.7925942841        0.6452693007
 C          3.7204132955       -1.8886601968       -0.2159457967
 C          4.9701916837       -2.7085795083       -0.2488020896
 C          2.6365271573       -2.1802172446       -1.0392065511
 C          1.4968043744       -1.4029229905       -1.0361628816
 C          0.3785662645       -1.7264723568       -1.9743681189
 C         -2.4864898062       -0.0263550848       -0.6930040373
 C         -2.4495873761        1.1125661564       -1.6636394668
 C         -3.6095161531       -0.8237110272       -0.6434842253
 H         -5.8269249187       -2.1486874268        0.0778132424
 H         -5.0452232138       -3.2456979547        1.2301601882
 H         -4.8958493850       -3.5258584760       -0.5040237573
 H         -2.6736516269       -3.0350345866        1.7251414388
 H         -0.6496338515       -2.4820021427        2.6932434580
 H          0.5044606789       -2.1018229852        1.4065746125
 H         -0.0320761925       -0.8308549202        2.4864808493
 H         -1.7863707393        2.1454231531        1.2022219280
 H         -1.8038075328        4.5875699926        1.1958265752
 H         -0.0370471525        5.8509615698        0.0097669418
 H          1.7472144030        4.6187505252       -1.1827952367
 H          1.7628676020        2.1766297577       -1.2043108527
 H          2.6550739089        2.0802424980        1.1535080901
 H          3.1695905927        0.9994553608        2.4518225832
 H          1.4447075016        1.2268789270        2.0857492243
 H          4.4492086408       -0.5632110830        1.2960352458
 H          5.0620908849       -3.2888651450        0.6707931606
 H          4.9640383249       -3.3974466361       -1.0899843853
 H          5.8487550178       -2.0687815841       -0.3223912725
 H          2.7028468665       -3.0184842880       -1.7197484598
 H         -0.4788825290       -2.1059293226       -1.4186817154
 H          0.6826343302       -2.4758736947       -2.7015577578
 H          0.0497568800       -0.8301627278       -2.4968276273
 H         -3.1805799304        0.9675964850       -2.4561008365
 H         -1.4564232549        1.2088306619       -2.0961258536
 H         -2.6701704306        2.0534575609       -1.1608595684
 H         -4.4456615331       -0.6002419376       -1.2922570501
