52
 energy: -66.411882990244 gnorm: 0.000042527511 xtb: 6.7.1 (edcfbbe)
C           -5.24696922548522       -2.37713320046895        0.29599965840397
C           -3.91050906119432       -1.70434576523234        0.19703928325794
C           -2.92506658876427       -1.95342454814168        1.14454834009202
C           -1.68115073413484       -1.34949731873882        1.07654844121777
C           -0.67136420805616       -1.64570641576553        2.14721211297114
C           -1.38191006587712       -0.44498733617810        0.04038305682830
B           -0.00141650250027        0.30417280189183        0.00037759318257
C           -0.00609179141117        1.87132422347191        0.00408066339113
C           -1.06829710244134        2.59637679954691        0.55673149208865
C           -1.06997207431692        3.97853521837291        0.56987811224201
C           -0.01417454776612        4.67944531201720        0.00885919053415
C            1.04574909362677        3.98656256497564       -0.55431802331368
C            1.05205589612959        2.60439622245493       -0.54582108642902
C            1.38394696434374       -0.43570936346401       -0.04332829369441
C            2.37561577059815       -0.18977914776240        0.91700597598344
C            2.13586894284974        0.70539226134228        2.10101432367881
C            3.61670316385178       -0.80790849782132        0.82704465605415
C            3.92196457927960       -1.67517727931303       -0.20752876952380
C            5.25978442114027       -2.34645372345035       -0.29836841947109
C            2.93926952000372       -1.92471533084116       -1.15721003607708
C            1.69070521866584       -1.33002055918821       -1.08573257306631
C            0.68495138987915       -1.62378158796582       -2.16088432266232
C           -2.37606078380088       -0.19924755529245       -0.91708288350231
C           -2.14354114858516        0.70572048745578       -2.09507194330252
C           -3.61285661902108       -0.82725743514531       -0.83092072809086
H           -5.13070078672563       -3.45999597639789        0.25087335932634
H           -5.90201711179885       -2.06403508260198       -0.51362092409079
H           -5.72486220031203       -2.13433640317947        1.24500898139565
H           -3.13784232501145       -2.63908031919991        1.95427136597319
H            0.27865640818913       -1.93923858269148        1.70680784778411
H           -0.49533422962364       -0.76142678452993        2.75827650861904
H           -1.02148333012906       -2.44618012198388        2.79556538792308
H           -1.89987584191444        2.05759591872268        0.98986763849343
H           -1.89838722805414        4.51447798940689        1.01239165336173
H           -0.01730396195689        5.76042666258962        0.01057447528015
H            1.87117716320883        4.52871657475567       -0.99482321118472
H            1.88686796755137        2.07189724507846       -0.98050076721543
H            2.85266220639625        1.52657435499851        2.10164438717255
H            2.27567577138257        0.14418699589115        3.02520434898567
H            1.13358826661800        1.12083144730589        2.09357870060394
H            4.35905161059550       -0.60191883694967        1.58708806769457
H            5.98169606010498       -1.86723723034279        0.35908092151802
H            5.17387901137310       -3.39420613087275       -0.00715480108070
H            5.63722711189227       -2.31496621199991       -1.31928616116099
H            3.15712752236542       -2.60219105093237       -1.97243181840527
H           -0.26624447541947       -1.92011903985552       -1.72504652487371
H            1.03842805474947       -2.42123819636721       -2.81113246298764
H            0.50997785818966       -0.73740700675576       -2.76934013487621
H           -2.28804582547718        0.15209213527448       -3.02306924352343
H           -1.14156782589721        1.12191836771728       -2.08972734939459
H           -2.86088262326283        1.52639041326120       -2.08488503364605
H           -4.35675042035728       -0.62138196578939       -1.58950460332984
