52
 energy: -66.310687136948 gnorm: 0.000055633960 xtb: 6.7.1 (edcfbbe)
C           -4.95991450053915       -2.74932600312338        0.28449797442487
C           -3.71983524936008       -1.91441802167281        0.24075467893845
C           -2.63809858589672       -2.18350263050748        1.07646491012264
C           -1.50025667790642       -1.40362397521613        1.06309480295006
C           -0.39293954488597       -1.70158527327944        2.02357191813599
C           -1.36602041456422       -0.33493773629717        0.12658176945559
B           -0.00279871953540        0.39355725951056        0.00230735747139
C           -0.00964608859642        1.95189878041355        0.00155849576947
C           -1.02337446991628        2.68041694918804        0.65139407295997
C           -1.02387420777300        4.05875426252016        0.64909531600008
C           -0.02059121696863        4.76733431586285       -0.00012855544557
C            0.98832282592829        4.06582536165332       -0.64832633651692
C            0.99840533988164        2.68754317111508       -0.64915607693730
C            1.36639247983838       -0.32324991747498       -0.12257445010727
C            2.48670256095280       -0.02098438251588        0.70004294653001
C            2.43560443096780        1.09842248250217        1.69402754740018
C            3.62138378863693       -0.80136100060855        0.64102001253931
C            3.73666630782242       -1.87781534109018       -0.24290273282245
C            4.99478299882474       -2.68515472757809       -0.29195275474969
C            2.65664523068348       -2.15876634889623       -1.07523098942538
C            1.51006930828937       -1.39057730868134       -1.05890129675250
C            0.40387890981049       -1.70084223877816       -2.01663170648163
C           -2.48795802919900       -0.04375710268641       -0.69737360775892
C           -2.44819379654283        1.07817007622170       -1.68880971878555
C           -3.61445351169701       -0.83730102680946       -0.64198671882553
H           -5.84490087635835       -2.14194895304768        0.10361335047378
H           -5.06100518093859       -3.24916091201564        1.24552245511760
H           -4.91799667324279       -3.51581358074183       -0.49225868578052
H           -2.70700259851907       -3.00623138596125        1.77600979435981
H           -0.70181862794882       -2.44380999738645        2.75640366493417
H            0.47891402623175       -2.08163978077096        1.48978098910686
H           -0.08277068193120       -0.79496836713966        2.54060987953906
H           -1.80366158755267        2.15157596318370        1.18044517255589
H           -1.81230938028052        4.59173628162393        1.16519452800909
H           -0.02489078743147        5.84796207845348       -0.00099383464371
H            1.77257128037347        4.60432742369276       -1.16506880834095
H            1.78289916835718        2.16418241225461       -1.17744265138311
H            2.67772226140729        2.04865400734458        1.21712051520879
H            3.14827073683210        0.93010449642366        2.49909776045203
H            1.43472420381429        1.19610007008059        2.10962513716423
H            4.45198899391303       -0.57768173222878        1.29755802297850
H            5.11156990403546       -3.25252437306962        0.63292421188191
H            4.97995194150655       -3.38396630109534       -1.12497648237809
H            5.86489502575494       -2.03646112372951       -0.39050716958876
H            2.73153601761843       -2.98067750950540       -1.77512054926728
H           -0.46236375556792       -2.09052782021739       -1.48058416559788
H            0.71905956849978       -2.43961131041426       -2.75027911409221
H            0.08216037691150       -0.79772948237506       -2.53274563201590
H           -3.15769688349105        0.90358285682756       -2.49534147892991
H           -1.44778061882971        1.18821123069186       -2.10253567337398
H           -2.70181665849749        2.02458092677304       -1.21022113597520
H           -4.44536488724120       -0.62105185669597       -1.30062003743784
