73
 energy: -117.091988318062 gnorm: 0.000113363242 xtb: 6.7.1 (edcfbbe)
O           -0.14037344732146       -4.29823342456630       -0.02370809116877
S           -0.07019298682013       -3.20364112522005        0.92616548246032
O           -0.08130596325654       -3.56319619108592        2.33195436554524
C           -1.44476421072360       -2.09932545632241        0.61158811683299
C           -1.65902568554179       -1.02778191575609        1.46048991321035
C           -2.69451609292190       -0.15149963157485        1.21929553439783
C           -3.53750807874725       -0.31245581550288        0.10326298225626
N           -4.59930151216745        0.54698142349553       -0.11328917529466
C           -5.49291411466051        0.31617081537020       -1.17694254244519
C           -4.99053447213062        0.23992755101469       -2.46617002387437
C           -5.79439983469751       -0.11635938676431       -3.53494018397902
C           -7.12580430967129       -0.49008233217872       -3.29517253236844
C           -7.64617345718844       -0.41207652664983       -2.03793274119934
C           -6.88664388963280        0.07300568638811       -0.92632681350648
C           -7.51763089520449        0.24944833294845        0.29727526485417
C           -7.10438977347865        1.06239994911887        1.38512811088570
C           -5.96730668869362        1.85222330839121        1.48440885195108
C           -5.93412171227777        2.90354843345101        2.45494106929877
C           -4.88968947241800        3.77359016587843        2.55039635368295
C           -3.78012880185383        3.64445933925296        1.70034978360099
C           -3.72224483911191        2.57573394091922        0.82407528766075
C           -4.77008023408642        1.67508139247406        0.70956283025507
C           -3.32874895642969       -1.44070745908059       -0.71017040752025
C           -2.28859870076153       -2.31140435882695       -0.46253731111255
C            1.37873879659188       -2.22294793215111        0.59311080299436
C            2.14693364969142       -1.73235708436640        1.63484235729670
C            3.25306862056911       -0.95643644805660        1.37002585819012
C            3.61757711630135       -0.65755684918981        0.04525100182000
N            4.70515508863264        0.12120174966717       -0.22167404299501
C            5.14121645270132        0.41922196389548       -1.53805401895928
C            5.56498805057040       -0.60040773606632       -2.38193961849904
C            5.95339002918199       -0.31620299519449       -3.67811233090496
C            5.91854984817389        0.99245689595988       -4.13724303665788
C            5.51282963906092        2.00921842395167       -3.29662706675306
C            5.13707918310938        1.74847719155201       -1.97635948231372
C            4.77178689594850        2.85408748033752       -1.10581519509762
C            5.02477077964041        2.94426407030765        0.20658198492670
C            5.71620034063286        1.95441084031940        1.01617915903414
C            6.54870059556664        2.37691576838130        2.05571055855965
C            7.26669540189622        1.46980834698811        2.80842134882937
C            7.16515156088086        0.11188782089783        2.54295469824919
C            6.32918472663499       -0.33043451598229        1.53443503602688
C            5.59335437274390        0.57960900075058        0.78506914285890
C            2.79800614422719       -1.13381476409510       -0.99415955070419
C            1.69469252083353       -1.90937084427701       -0.71851360622417
H           -1.02089574456337       -0.90267067773649        2.32091386069409
H           -2.86675697655430        0.65279843654335        1.91520439723358
H           -3.94933273594720        0.47823560049616       -2.63291867110399
H           -5.39850410799204       -0.11510401881136       -4.53796402065217
H           -7.74060387508095       -0.82554455581709       -4.11759239714547
H           -8.67999538169658       -0.66967751824732       -1.85931345401207
H           -8.51797365708571       -0.15504430866493        0.37990630588707
H           -7.84071782111055        1.18923153348252        2.16803270892572
H           -6.79890911792766        3.01883844641572        3.09209355159206
H           -4.91556958798616        4.57627148428962        3.27281871608227
H           -2.97811751505815        4.36436879809381        1.73411442973125
H           -2.84927189383431        2.43680144177242        0.20166408865885
H           -3.99599542962235       -1.65157096565510       -1.52923716837460
H           -2.12546889119265       -3.17648285265154       -1.08647914718408
H            1.86694689693743       -1.98250637906404        2.64651893102691
H            3.84248358537315       -0.57200385748415        2.18725140909681
H            5.56959934080726       -1.61766444966981       -2.01823412645631
H            6.27341266490415       -1.11439942734457       -4.33075952920907
H            6.20959031471024        1.21622338696829       -5.15269135087004
H            5.49525758034118        3.02925718152783       -3.65224153942876
H            4.34209680347003        3.71066770194033       -1.60896247045124
H            4.79033929182853        3.87021052107335        0.71560573255158
H            6.63637543513987        3.43478145854760        2.25674342313927
H            7.90823808625128        1.81760398366359        3.60422029340871
H            7.72804566169796       -0.60089088816196        3.12653278467564
H            6.22487600250086       -1.38636682712358        1.33133555370267
H            3.03321896797044       -0.88530820387116       -2.01687872825496
H            1.07286683490013       -2.29297515531159       -1.51236460722849
