93
 energy: -141.751395895641 gnorm: 0.000060325221 xtb: 6.7.1 (edcfbbe)
C            4.29898205487425       -3.49551428383577        0.56010018427306
C            3.04636753137940       -3.72308660344371        1.42737434198237
C            3.43966478259766       -4.36965593868819        2.77118138501000
C            2.10988543402338       -4.66408211995703        0.70248548619222
C            2.53023687685560       -5.95386358586577        0.40460952832788
C            1.70020526924801       -6.87143986744538       -0.21193858254911
C            0.39836509244204       -6.50922751930317       -0.52407092670655
C           -0.04239026192396       -5.23382111926644       -0.25123037229261
C            0.80971017114430       -4.28490964691273        0.33397122243936
N            0.35052955287752       -2.99921302764491        0.56273476345740
C           -0.92572438276078       -2.63419222409291        0.05640581302128
C           -1.14159918130434       -2.59018074029390       -1.31996066291884
C           -2.38477228195491       -2.25800255871184       -1.81573976032339
C           -3.42720739754219       -1.91808661541131       -0.95112133936174
C           -4.75197354289390       -1.54668265008900       -1.48500545858931
O           -5.26469183250185       -2.12500247302517       -2.45473016667793
C           -5.40186169539935       -0.41759422450528       -0.80491569422052
C           -6.78837105551522       -0.20533548972240       -0.86244150761846
C           -7.31227369493969        0.88666627750609       -0.18648159432640
C           -6.46521929702554        1.74866835135955        0.48414089666770
C           -5.07793840306072        1.50410511332819        0.43684316068333
C           -4.13505937299642        2.41477035516728        1.09488806946291
O           -4.51660780140733        3.17374501935669        2.01240198761109
C           -2.74208783977569        2.42376129757465        0.63825907603344
C           -2.35330392997250        2.02119354699220       -0.64555031094771
C           -1.04020041336753        2.11471068305029       -1.05252643654610
C           -0.06567112691513        2.60527234585731       -0.18317257293692
N            1.29173695067984        2.74579802439845       -0.56643685256460
C            2.08296971794935        1.66061994006978       -0.90791252038785
C            1.52021945368127        0.40900172195323       -1.17628817615736
C            2.30877530868575       -0.63446958063579       -1.61186228401111
C            3.66898581676141       -0.44901726997992       -1.78753309389006
C            4.24250687238019        0.76783435528883       -1.45817775451529
C            3.47928714107450        1.82742758161303       -0.99742729982470
C            4.09231854473815        3.10644449080034       -0.46526442458487
C            5.51890618678060        3.33862295082214       -0.96744755447266
C            4.13752432500319        2.97001808200742        1.07535703602964
C            3.16774234474280        4.26066314759475       -0.78471631836947
C            3.61499166994080        5.54869795343882       -1.03276727944213
C            2.73038992996653        6.59938138196138       -1.21236013810884
C            1.36507702976341        6.37218877123746       -1.14317442855992
C            0.89264226667901        5.09790136723165       -0.91387255163038
C            1.78239312513890        4.03281380496167       -0.73511418373309
C           -0.44737620523844        3.04554787227209        1.08657398434214
C           -1.76067897662048        2.96310060663176        1.48532220604484
N           -4.59350761489774        0.43010831801524       -0.17541545467024
C           -3.20453115211566       -1.97077957840763        0.42736619157411
C           -1.97420826387693       -2.34074274006847        0.92656692078128
C            1.10156546493516       -2.07172265464820        1.26381443207032
C            0.57987339389101       -0.79604129002530        1.52364558559456
C            1.30329150720883        0.13462018605440        2.23437788034074
C            2.57724272730728       -0.17406736336628        2.68263681587349
C            3.11004082053789       -1.41781534585581        2.40145712824349
C            2.39868379354010       -2.38357051845292        1.70260477838602
H            4.01211665029070       -3.04553827085615       -0.38701178782344
H            4.80419105694741       -4.43577979261865        0.36032752039484
H            4.99640470387585       -2.82988780097478        1.05940349485480
H            3.92003847906916       -5.33015785470088        2.61211177828567
H            2.55273002580590       -4.52584883546410        3.38246179500939
H            4.12730866693327       -3.73364237856436        3.31989187033499
H            3.53268953687327       -6.25759648484278        0.66188019743336
H            2.05907746652717       -7.86494671730270       -0.43265367244849
H           -0.27507779789364       -7.22094096685723       -0.97694667747734
H           -1.06057758109518       -4.96535810430404       -0.48342823057674
H           -0.33413631723964       -2.82828323760523       -1.99631068504639
H           -2.56458735364777       -2.23413566872778       -2.88041795562584
H           -7.40489248810517       -0.90118479819776       -1.40931943325016
H           -8.37855052555258        1.06461393998334       -0.18745612230483
H           -6.82117622541649        2.61253098717257        1.02364042738563
H           -3.09486766055254        1.65550307942766       -1.33746776735222
H           -0.77291959150957        1.84830109608373       -2.06468541139728
H            0.46151760734520        0.25756135896294       -1.05304614410104
H            1.85552579400619       -1.58972552841274       -1.82653024675964
H            4.28867451766737       -1.24954139001729       -2.16154843941696
H            5.30875586786616        0.87520781186781       -1.56284544578371
H            6.16189939276115        2.51395570581369       -0.67492531873926
H            5.93484619442079        4.23558512528822       -0.51827918015211
H            5.53786217690342        3.44088194443568       -2.05003386340042
H            4.51872200054931        3.88754593057129        1.51789427502202
H            4.78832869903787        2.14451435367926        1.35267439854723
H            3.14509206587070        2.77552454981025        1.47389208479946
H            4.67095705580562        5.75454854728889       -1.08364645663147
H            3.10727256192614        7.59274398252952       -1.40229608463190
H            0.66700754917738        7.18424823276191       -1.27949594209270
H           -0.17035908645098        4.91462753088776       -0.88809901021822
H            0.29683360454930        3.46775331170025        1.74673919273145
H           -2.06806631261004        3.30824194450312        2.46180191511724
H           -4.01178944645240       -1.74549528865241        1.10721221149002
H           -1.81891137032063       -2.41064581317641        1.99325037366730
H           -0.40411135905237       -0.53325045479179        1.17097213142892
H            0.86433714052068        1.09932098430076        2.43488515989526
H            3.15128100485830        0.54775787046211        3.24235862893645
H            4.10915268900471       -1.63889361568342        2.74170619267923
