93
 energy: -141.810864038665 gnorm: 0.000059362313 xtb: 6.7.1 (edcfbbe)
C           -3.72616796801163       -4.21730062070546       -0.11920727188149
C           -4.00971098924989       -3.04261390150404        0.83554975780287
C           -4.68020817379204       -3.55314302835661        2.12541786034946
C           -4.95548703454552       -2.07646795852041        0.15022824687340
C           -6.22968028625733       -2.50434875309471       -0.20116515117344
C           -7.15262955042894       -1.66097352982036       -0.79032323986044
C           -6.81007451087107       -0.33949357456691       -1.01556927016136
C           -5.54920563180066        0.10876406464391       -0.68246690074074
C           -4.59693595723284       -0.75442371077657       -0.12999795814185
N           -3.32789739029549       -0.27141609638488        0.17905357408053
C           -2.96361851852265        1.01234687969183       -0.27818521466541
C           -2.90610025967195        1.27224703325137       -1.64852939384314
C           -2.55535756691235        2.52421885651737       -2.10252346170554
C           -2.23061396354596        3.54360912348064       -1.20260959481775
C           -1.86167302464473        4.86480278195116       -1.73560723101017
O           -2.25417947360202        5.27581956616132       -2.81673119131619
C           -0.94354576062760        5.69523860405016       -0.89852653004177
C           -0.97684421225550        7.08814196421681       -0.98105470734963
C           -0.09798696034770        7.81829702038488       -0.19719609220067
C            0.78852414458127        7.13805417774564        0.62201253345051
C            0.77097078195010        5.74236153505587        0.60973612400859
C            1.69990249946657        4.96793596931067        1.48765115878902
O            2.08405986680339        5.43996946070783        2.54689652144865
C            2.09639297041150        3.62922019433772        1.02296098390955
C            2.16314929889109        3.29668207267717       -0.33150032380325
C            2.57089960274173        2.03800237256360       -0.72130675845982
C            2.90872511584937        1.07634206178343        0.23097438834247
N            3.32120211089161       -0.21470319233495       -0.15938633745488
C            2.42482210741402       -1.06730946627613       -0.80248700746920
C            1.14650449758823       -0.61597681860941       -1.14193705021144
C            0.23749469017529       -1.44370900459752       -1.76567582729701
C            0.58172842270226       -2.75087192442110       -2.05464585907706
C            1.83559049478053       -3.20899635018600       -1.69823929504748
C            2.77222212869807       -2.39520565843749       -1.07378245954045
C            4.11657263146304       -2.98311321447367       -0.68969094336342
C            4.80318075745155       -3.51994928018423       -1.96031830595386
C            3.88746741144552       -4.12602893740543        0.31673757255375
C            5.02250729474514       -1.94772794403606       -0.05351241793735
C            6.31439633601883       -2.30586791115712        0.31122799882928
C            7.20387458840557       -1.39838615727924        0.85474595838304
C            6.80821143540009       -0.08263530687508        1.01760396897202
C            5.52892145415912        0.29720360994142        0.67000813390831
C            4.61052942602056       -0.62959400359918        0.16516629781542
C            2.85240128912967        1.40926139668021        1.58566787372193
C            2.46195111078829        2.67145413806454        1.97387726283352
N           -0.08248592195541        5.04405803425242       -0.12746118296980
C           -2.30305604212160        3.28511641441693        0.16752942892788
C           -2.67243974070635        2.03658874825325        0.62275513371684
C           -2.40131681964994       -1.05316831745983        0.86757741152108
C           -1.14608739189967       -0.53202122562830        1.19303481764960
C           -0.20701338103848       -1.29057656326033        1.85891146087121
C           -0.49705412545230       -2.59683929751922        2.20559869419179
C           -1.72793105655266       -3.12404840910716        1.86471936513216
C           -2.69408563000462       -2.38072632856034        1.19875277786469
H           -3.03917290947537       -4.92721323845993        0.33268714994329
H           -3.28032298777010       -3.84658874334825       -1.04029450090449
H           -4.64499289281417       -4.74085518562904       -0.36911310270194
H           -4.87757313872423       -2.71815262331206        2.79563869939155
H           -4.04041797803895       -4.26323657935722        2.64117854417691
H           -5.62283491376677       -4.04595382998697        1.90573523720277
H           -6.51579313626927       -3.52751766285193       -0.01128198184620
H           -8.13254477458263       -2.02805137382104       -1.05599004485179
H           -7.52376241810566        0.34729704540365       -1.44639593359604
H           -5.30091738083234        1.14608126599925       -0.84583373229467
H           -3.14462793691060        0.48446995709768       -2.34776678941679
H           -2.50535282072570        2.73358536769188       -3.16090933377140
H           -1.68695805232331        7.56244583093314       -1.64054953873836
H           -0.10372196975490        8.89765316642725       -0.22425373578367
H            1.49311231518862        7.65265828815074        1.25671097805907
H            1.92771737468159        4.03395230467211       -1.08238322756917
H            2.64678219828597        1.79340712970071       -1.77038506176257
H            0.85188117542175        0.39341634392394       -0.90603266324575
H           -0.74068945179222       -1.06244752077893       -2.01638311375037
H           -0.11802047434506       -3.41139295567094       -2.54365975828364
H            2.08664499588368       -4.23673535360647       -1.91142245516414
H            4.19397008075953       -4.28109773596157       -2.43901067891735
H            5.76883819072310       -3.95839929534763       -1.72595666991037
H            4.95786028825669       -2.70771050893063       -2.66868172932520
H            4.82985942828792       -4.59150740098344        0.59230548028436
H            3.23879657858757       -4.88906178045958       -0.10412489307455
H            3.41941551201684       -3.73668635518530        1.21899060733381
H            6.64179615745061       -3.32427247690090        0.16826941207200
H            8.19887920678905       -1.71198934928904        1.13251548191044
H            7.49434003964923        0.65292974947375        1.41096086697586
H            5.23987889210159        1.33052499738053        0.78383490457591
H            3.12520072583016        0.67032632513270        2.32463936809889
H            2.41426012811611        2.93713870848013        3.01965349970845
H           -2.10164576093660        4.07081916222705        0.87820315299316
H           -2.75210925110025        1.84742137812279        1.68298636804898
H           -0.89320977093039        0.47745552048515        0.91252406799060
H            0.75212534916873       -0.85653253707288        2.09713526267961
H            0.22701667924196       -3.20359488579933        2.72771930615579
H           -1.93652042324827       -4.15068474358916        2.12397722888324
