85
 energy: -126.417932394755 gnorm: 0.000123890848 xtb: 6.7.1 (edcfbbe)
C           -6.96405640724807       -4.45306868502425        2.88146420478947
C           -6.34470786674900       -3.31859283713745        2.12626397208956
C           -6.97296349050053       -2.77837307659958        1.00754226488821
C           -6.41976941157766       -1.72097991258859        0.31627679787528
C           -5.20912991137920       -1.16163272017901        0.73581988418162
N           -4.61745839328486       -0.10077440910326        0.05374248413905
C           -5.38485552275184        0.86500014664783       -0.59434404310106
C           -6.64177112174140        1.24738322750278       -0.11547479109642
C           -7.37300020578027        2.21086389496958       -0.77687575414894
C           -6.88288756218116        2.83058710929157       -1.92397600384716
C           -7.68229205020596        3.88970560105583       -2.61697238482679
C           -5.62721619301928        2.45366023657416       -2.38880406995159
C           -4.88595595364571        1.48723167167037       -1.74110964815791
C           -3.22197398260073       -0.00082886844970        0.01663954211936
C           -2.45276482629401       -1.08284905574533       -0.51437911224608
C           -3.05080760770327       -2.22028829954918       -1.06796099806149
C           -2.29704235328707       -3.22448155479377       -1.66129793857219
C           -0.92533617001230       -3.09387381612735       -1.75125262632427
C           -0.30754134949268       -1.96089884062456       -1.23979040437147
C           -1.03316753906240       -0.95447569741363       -0.58943032666934
C           -0.39684557557540        0.22596384465914       -0.09866995710026
C            1.05371684395632        0.35415976563093       -0.17939430249191
C            1.64317402560666        1.43797246169497       -0.84403723743203
C            3.01361151858058        1.54384955795504       -0.94090309238484
C            3.83757261492367        0.58065174065117       -0.36698485810760
P            5.62951638980440        0.78930824495829       -0.53247195742561
O            6.00400755999350        1.98249854645400       -1.31969442336419
C            6.28540805285302       -0.75017391665356       -1.26433928242015
C            5.48846113458828       -1.63554549312659       -1.97401028446161
C            6.05985532106128       -2.74452879025791       -2.57554081405650
C            7.42391225621777       -2.96403972085207       -2.47491773663615
C            8.22376230160521       -2.07099797308767       -1.77809318785834
C            7.65511290876472       -0.96373215811443       -1.17561039970511
C            6.29113728276628        0.82815221003497        1.16473730992323
C            6.60443869904738        2.07265657449582        1.69448335883987
C            7.09261184144236        2.17527466354809        2.98499326462043
C            7.26384988204450        1.03195589043030        3.74923908939977
C            6.95008096247937       -0.21158128628589        3.22251161441832
C            6.46288406886588       -0.31709865605114        1.93225918743985
C            3.26646610733522       -0.48990348784711        0.31850833743072
C            1.89697870520660       -0.60517863213938        0.40021150907934
C           -1.17010200099999        1.28708167227581        0.46200838309387
C           -0.56129398462949        2.39548056063402        1.06445819240812
C           -1.30764312488277        3.41373421573026        1.64167453682246
C           -2.68539556285422        3.32244788278286        1.66723351153445
C           -3.31684813636526        2.21230201226029        1.12187481917704
C           -2.59263445592104        1.18645787053455        0.50479285418493
C           -4.57196096210729       -1.70234943159782        1.85564318516536
C           -5.13556015305767       -2.76249978925031        2.53369734757134
H           -6.20094422966582       -5.06549848907342        3.35615183024092
H           -7.56247868180294       -5.07759016633942        2.22207274009210
H           -7.61902101785278       -4.06538678768515        3.66326024670662
H           -7.90580878681867       -3.20245482745199        0.66462586147656
H           -6.90684447885483       -1.33753024623637       -0.56846665954128
H           -7.02738274275484        0.79996288782819        0.78908359784174
H           -8.34061832052297        2.49800173056435       -0.39105019228686
H           -8.73430615132845        3.61424201180057       -2.65856808038628
H           -7.60557438348209        4.83080167085813       -2.07082667025060
H           -7.31806173970287        4.05331846873290       -3.62808976790572
H           -5.22609668320359        2.91766530385062       -3.27840592720762
H           -3.91824037251316        1.19391827536680       -2.12093640154292
H           -4.12324670003547       -2.32981383911432       -1.04414200590480
H           -2.79344624622155       -4.09606245097959       -2.06225249693914
H           -0.33044605432017       -3.85818216621559       -2.22953301249895
H            0.75746635556567       -1.84379255683294       -1.36802953847756
H            1.00939256356387        2.17752577377480       -1.31233623454388
H            3.47368126050631        2.36662992352043       -1.47127254351886
H            4.42525566878516       -1.45388247688379       -2.05170319878322
H            5.43845510474552       -3.43635355462502       -3.12540336119717
H            7.86663506446517       -3.83009148740604       -2.94450811354577
H            9.28855824445826       -2.23800513658544       -1.70580654497504
H            8.26251471138656       -0.25158986226426       -0.63116628906863
H            6.47187135023082        2.94802649640694        1.07298260610223
H            7.34092930606804        3.14431183110713        3.39289564610656
H            7.64742654460680        1.10925909661590        4.75598582131907
H            7.08956292931013       -1.10185907348575        3.81836795121080
H            6.23363311567896       -1.28599969940617        1.51182960527072
H            3.90280968149501       -1.23022071142545        0.78105806650770
H            1.45728495307136       -1.43017642348960        0.94240745106279
H            0.51608720258848        2.45150705016781        1.09979196082772
H           -0.80449191984052        4.26295453236410        2.08050408396274
H           -3.27897416615568        4.10293804452794        2.12039456928655
H           -4.39143086178396        2.14831743140650        1.18728667653827
H           -3.63799547418647       -1.27329817129807        2.18801521908305
H           -4.63067142429456       -3.16297800168071        3.40099409459657
