  85
       -126.36474436
 C         -6.9378687614       -4.4945319787        2.8220492325
 C         -6.3213302711       -3.3456644761        2.0868928425
 C         -6.9551790655       -2.7863527727        0.9812473242
 C         -6.4050636830       -1.7182740356        0.3048487779
 C         -5.1928549539       -1.1659472010        0.7282112415
 N         -4.6013183463       -0.0989527332        0.0593543859
 C         -5.3661540766        0.8689945496       -0.5854234777
 C         -6.6270100026        1.2452171652       -0.1135290754
 C         -7.3554067315        2.2111095997       -0.7742088605
 C         -6.8577717881        2.8398881657       -1.9124390398
 C         -7.6561706881        3.8992106086       -2.6059559533
 C         -5.5970774957        2.4711852481       -2.3685629032
 C         -4.8590081050        1.5019459575       -1.7221441215
 C         -3.2070323614        0.0028028878        0.0267920490
 C         -2.4349936877       -1.0816148177       -0.4948721461
 C         -3.0303679950       -2.2195221686       -1.0481366210
 C         -2.2709048275       -3.2310186469       -1.6232486791
 C         -0.8985269291       -3.1062433900       -1.6945502673
 C         -0.2834696313       -1.9688731209       -1.1881350462
 C         -1.0153065022       -0.9553271316       -0.5577458212
 C         -0.3843346710        0.2316616961       -0.0775820535
 C          1.0639967333        0.3673631333       -0.1633016512
 C          1.6398169937        1.4515438738       -0.8375448508
 C          3.0085121181        1.5636130822       -0.9489693277
 C          3.8408472769        0.6083067553       -0.3773650047
 P          5.6311512359        0.8191429539       -0.5678422562
 O          6.0062024865        1.9999351275       -1.3618182337
 C          6.2545455786       -0.7467325484       -1.2734074695
 C          5.4355660629       -1.6252461737       -1.9655298551
 C          5.9768886390       -2.7626654749       -2.5402892234
 C          7.3336669597       -3.0182335304       -2.4298915058
 C          8.1556947611       -2.1329242725       -1.7500121363
 C          7.6165400013       -0.9972344396       -1.1743537864
 C          6.2866013715        0.8494914077        1.1326353857
 C          6.5667200130        2.0947855690        1.6771701886
 C          7.0328581708        2.1964759498        2.9754342610
 C          7.2160639506        1.0505608669        3.7323438190
 C          6.9380497921       -0.1943539862        3.1898049292
 C          6.4719006525       -0.2983005639        1.8919306147
 C          3.2839089708       -0.4599183420        0.3207710458
 C          1.9159190139       -0.5832628930        0.4159343933
 C         -1.1605502797        1.2968805766        0.4700387783
 C         -0.5540449696        2.4116529885        1.0610986752
 C         -1.3042930174        3.4322836522        1.6300585873
 C         -2.6808949214        3.3368006671        1.6574511715
 C         -3.3101058953        2.2204848917        1.1203397328
 C         -2.5820760322        1.1937912861        0.5112393555
 C         -4.5513030828       -1.7248492972        1.8360581880
 C         -5.1109514453       -2.7969446369        2.4980166288
 H         -6.1772076250       -5.0867512136        3.3249730727
 H         -7.4944448915       -5.1355654926        2.1419878171
 H         -7.6322513217       -4.1247820367        3.5777227230
 H         -7.8899522445       -3.2047088812        0.6367005639
 H         -6.8960316717       -1.3209041271       -0.5713678913
 H         -7.0190248267        0.7901451163        0.7843014591
 H         -8.3273008664        2.4924469079       -0.3949634508
 H         -8.7046576089        3.6142524022       -2.6674112376
 H         -7.5975844650        4.8354961797       -2.0498305973
 H         -7.2785133531        4.0764213194       -3.6097721486
 H         -5.1897060959        2.9442342490       -3.2502616115
 H         -3.8873475582        1.2139989980       -2.0944182998
 H         -4.1029326414       -2.3250680345       -1.0404309924
 H         -2.7648842538       -4.1037080393       -2.0237071810
 H         -0.3003526336       -3.8775999284       -2.1562324411
 H          0.7821872151       -1.8543872766       -1.3055834239
 H          0.9945814875        2.1826715776       -1.3020033674
 H          3.4605104288        2.3835941929       -1.4879332995
 H          4.3784486449       -1.4161802615       -2.0507339102
 H          5.3384258775       -3.4493404369       -3.0768891244
 H          7.7526951467       -3.9070301893       -2.8780409643
 H          9.2146348976       -2.3296346120       -1.6695085735
 H          8.2417626677       -0.2913904034       -0.6434846404
 H          6.4250903822        2.9709282092        1.0605787370
 H          7.2547677592        3.1659159591        3.3968740882
 H          7.5812021802        1.1262209039        4.7459594822
 H          7.0884834151       -1.0864543751        3.7803451836
 H          6.2698680090       -1.2680678072        1.4596621799
 H          3.9299029255       -1.1916807135        0.7832756492
 H          1.4845744070       -1.4056250279        0.9683852719
 H          0.5222238545        2.4701090543        1.0961327124
 H         -0.8040413380        4.2867123632        2.0606883275
 H         -3.2765241303        4.1181199772        2.1054851504
 H         -4.3840302241        2.1542539983        1.1867568416
 H         -3.6158799447       -1.3012442798        2.1697456711
 H         -4.6016865021       -3.2134842951        3.3549499144
