85
 energy: -126.417442119207 gnorm: 0.000051017504 xtb: 6.7.1 (edcfbbe)
C           -7.21009286675200       -5.01063713624143        0.73495348479227
C           -6.53944701250506       -3.69078807513793        0.51224797173497
C           -7.06706557623087       -2.74767071326146       -0.36300820572110
C           -6.44439669279835       -1.53312873109997       -0.56799116818170
C           -5.26599193426942       -1.22134609017028        0.11459327831575
N           -4.60986945280559       -0.00617813752101       -0.07196679038975
C           -5.31290265966703        1.15997813063259       -0.36854232511265
C           -6.60050155904462        1.38750914220754        0.12458813771635
C           -7.26831292752893        2.55407627026771       -0.18594676385905
C           -6.68151899002473        3.53180158185685       -0.98336277560186
C           -7.41627809622247        4.78797140150417       -1.33442311038918
C           -5.39405588987482        3.30395224019655       -1.46239160341786
C           -4.71635113193907        2.14103793285685       -1.16535197488226
C           -3.21534776959258        0.04232544360146        0.03784974202118
C           -2.41736946439914       -0.82500151802276       -0.77152802271042
C           -2.97335422918015       -1.65452984175455       -1.75058266207701
C           -2.18814495549878       -2.52373980911116       -2.49821310593450
C           -0.82661348224163       -2.58548944243810       -2.27666097912300
C           -0.23987329762852       -1.72934141730278       -1.35395810690476
C           -0.99837220024870       -0.80718312057954       -0.62139527118103
C           -0.39094372902780        0.12142356274037        0.27553864363219
C            1.06427328399292        0.15311736242237        0.40774367485366
C            1.88238713787739        0.39841774221765       -0.70236491128868
C            3.25523842252343        0.42637164339367       -0.58250712215795
C            3.85178145439521        0.19222887134489        0.65361736581138
P            5.65001825834486        0.15711440164295        0.89770713859602
O            6.05190775946319        0.40701646309939        2.29626443309806
C            6.33995090605287        1.37930302825897       -0.26616352011702
C            6.59227366903435        1.09268624348917       -1.60155505978843
C            7.10616576716085        2.07608403134663       -2.42854004067935
C            7.36934899491315        3.34105453452681       -1.92671417118726
C            7.12171198633673        3.62665776036557       -0.59323459301927
C            6.60701181776121        2.64602558241763        0.23579421536776
C            6.22027653666616       -1.46422569532488        0.28255526059977
C            7.42948229090753       -1.92948156223890        0.78293869782677
C            7.93334179190834       -3.14680914589940        0.36145982788010
C            7.22687188934380       -3.90267899785882       -0.56090978100352
C            6.01758409605234       -3.44255960432813       -1.05725709355585
C            5.51173903292647       -2.22410983360800       -0.63852237516844
C            3.05088995508161       -0.04652875393168        1.76597296940343
C            1.67781912553931       -0.05932834897350        1.64838951140135
C           -1.19028889829161        1.01477631612757        1.04922426933113
C           -0.61536146316539        1.97450092014103        1.89227532636489
C           -1.39395664645496        2.79435385628504        2.69876179439298
C           -2.76807076826415        2.65819652282264        2.68960609267591
C           -3.36932833112025        1.74995795696938        1.82657157445775
C           -2.61342590457421        0.95412888305464        0.96007595203330
C           -4.72840142468741       -2.16772699150960        0.99215819028315
C           -5.35807387839584       -3.37847831824927        1.18144332131583
H           -8.12539028805907       -5.08704690927749        0.15383104878963
H           -7.45353301395421       -5.13881634797078        1.78921422783725
H           -6.54555668335241       -5.82535807392142        0.44859267324476
H           -7.97530817370350       -2.97089283745014       -0.90427608574800
H           -6.85498878888400       -0.82784913404878       -1.27577192347467
H           -7.06206492887370        0.65545772490209        0.77118403680890
H           -8.26136717392969        2.71355056942098        0.20906543049723
H           -8.22513522732180        4.97552231429193       -0.63253780851574
H           -6.74172182834885        5.64169467044080       -1.33585548493670
H           -7.84620635075053        4.70097138022503       -2.33327657419175
H           -4.91896764454784        4.04836039601686       -2.08501512127972
H           -3.72241419797912        1.97213371859066       -1.55295150247119
H           -4.03591882738999       -1.63146095855055       -1.93461227861738
H           -2.65432104937619       -3.16072310350980       -3.23561293088667
H           -0.21241416779838       -3.28668203564982       -2.82242588802037
H            0.82669267442870       -1.77715616743583       -1.19766382027463
H            1.42207169005600        0.59560145049423       -1.66016083716241
H            3.87092280185846        0.64284077567344       -1.44425640399197
H            6.39751882330011        0.10107038811551       -1.98537081225253
H            7.30538183445205        1.85384033581251       -3.46684130896413
H            7.77276577603033        4.10473083114739       -2.57534059146491
H            7.33100237896588        4.61087750727828       -0.20013410042771
H            6.41482328565887        2.83995789595082        1.28245546145361
H            7.95629569674207       -1.32694251044984        1.51054641722779
H            8.87398398318072       -3.50638483021913        0.75241226272096
H            7.61747652502144       -4.85427098220845       -0.89034497806369
H            5.46515161595906       -4.03551663121155       -1.77170783267112
H            4.56573437009284       -1.86519080910506       -1.01814438555333
H            3.52923122823280       -0.21827228079854        2.72083620518928
H            1.06291211137318       -0.26273514058238        2.51353026046353
H            0.45855559790680        2.07936019663140        1.91976893048889
H           -0.91772670601446        3.52487560111383        3.33626720593405
H           -3.38448217674727        3.26644968626639        3.33524874384629
H           -4.44484993094922        1.66882304327609        1.83121022652753
H           -3.81991594961083       -1.93330949130237        1.52739119306886
H           -4.93171018922999       -4.09556628971295        1.86812833148087
