85
 energy: -126.479074499528 gnorm: 0.000032042847 xtb: 6.7.1 (edcfbbe)
C           -6.96399835261455       -4.98926790539664        0.27353378595066
C           -6.25662193966631       -3.67010073269746        0.18910934238650
C           -6.73265764193616       -2.64865833610732       -0.62425669570606
C           -6.07316453220918       -1.43901697384281       -0.71711372439867
C           -4.91180673910644       -1.20960733797215        0.02133782497059
N           -4.22320686154715        0.00273635085724       -0.05586087982404
C           -4.87276140045373        1.21910430022788       -0.27603600868948
C           -6.16891024633736        1.45123217521105        0.18597840050472
C           -6.78370019343594        2.66659750128502       -0.03963699665859
C           -6.13213373427467        3.69185566554447       -0.71557110428875
C           -6.79500662149845        5.01914430185509       -0.93191765310166
C           -4.83587657107687        3.46007830280056       -1.16042150321586
C           -4.21282309352299        2.24614019001163       -0.95133115906782
C           -2.82041085011409        0.00073434751527        0.10535544494476
C           -2.01598794658423       -0.71282918174736       -0.80154428460378
C           -2.56186465602412       -1.40068651962570       -1.91585959122778
C           -1.76582723104319       -2.07433132358425       -2.79140226991557
C           -0.36963162469496       -2.10142066961350       -2.60752008527279
C            0.19582276012329       -1.43563216113590       -1.56383657058906
C           -0.59653984359080       -0.71606096468319       -0.63049667698091
C           -0.01597515815126        0.01176696902847        0.41742338932445
C            1.45607228250094        0.03277552011424        0.57220477821736
C            2.18247418415687        1.16283870302945        0.20772283821873
C            3.55875604280634        1.18933270107405        0.34382538284867
C            4.22368880784282        0.08069709938783        0.84589278081608
P            6.02062144341613        0.05802100732269        1.15288984764481
O            6.34703157438628        0.11041112686660        2.59256603596792
C            6.73603478157199        1.43935607228311        0.20983934820408
C            6.62648448981479        1.52264752526988       -1.17339198129289
C            7.20176299466338        2.58683567113522       -1.84289597227170
C            7.88665359533628        3.56521512456396       -1.13718092185706
C            7.99938738823733        3.48057308857762        0.24115454467428
C            7.42507336670905        2.41627104872860        0.91461756461596
C            6.63459237428445       -1.44971227141644        0.33627156161909
C            7.75303946336597       -2.05646275265597        0.89165323021899
C            8.29239769901660       -3.18740415861658        0.30470651653119
C            7.71340280314234       -3.71147902799158       -0.84018775549996
C            6.59521134034044       -3.10807869246268       -1.39473151698396
C            6.05441386486998       -1.97662469951786       -0.81061079359111
C            3.50407716096177       -1.04553890645718        1.22674046350377
C            2.13050522007731       -1.07283380935667        1.08630831060619
C           -0.81866638314557        0.72769628414207        1.31642669352724
C           -0.25637078480514        1.44535600480909        2.40525900354629
C           -1.04342659272551        2.09995259261012        3.30225521945168
C           -2.44552360109925        2.06388592481457        3.17308437963175
C           -3.02397938766576        1.39125842037937        2.14010078980171
C           -2.24076190991051        0.71327770838624        1.17091397218749
C           -4.42507550293134       -2.23458299199886        0.83335806206460
C           -5.08845160416810       -3.44255387965220        0.90793704198582
H           -8.00000814451320       -4.89559070701641       -0.04340222390066
H           -6.93929237138572       -5.37556340924390        1.29072276886701
H           -6.47501172333139       -5.71934790323075       -0.37307122353150
H           -7.63168280739774       -2.80348537039641       -1.20445569951490
H           -6.45111314981029       -0.66750668511295       -1.37253609048056
H           -6.68813249732633        0.67791147418148        0.73372076892490
H           -7.78821301604262        2.82402017652118        0.32776377418795
H           -6.46140819159649        5.47089797109960       -1.86376799359974
H           -7.87724638645694        4.91345264415129       -0.95727359828410
H           -6.54083429049762        5.70060579580940       -0.11847668215349
H           -4.30598089062183        4.24100667059884       -1.68767430639494
H           -3.20717510478161        2.08442116142007       -1.31194285889143
H           -3.62903486252104       -1.37725391331772       -2.07161743770779
H           -2.20055066381334       -2.58771253456105       -3.63650537670177
H            0.24733923747515       -2.64472456391632       -3.30841054128369
H            1.26728455811805       -1.44031178098103       -1.42999955987887
H            1.66082024285532        2.02360355094033       -0.18554763993455
H            4.11883978119221        2.06950509138684        0.05965087154787
H            6.09232563760218        0.75679181400045       -1.71616525196998
H            7.11699169916524        2.65503575591427       -2.91761919357545
H            8.33523199921988        4.39424158300016       -1.66449755919502
H            8.53391499732946        4.24155950644082        0.79072929344354
H            7.49941418566468        2.32434684705099        1.98954989354013
H            8.17911114168155       -1.63337523119532        1.79136817048700
H            9.16141774910272       -3.65940494423450        0.73940900471897
H            8.13164752615355       -4.59520432671588       -1.29924516828507
H            6.14267194565290       -3.52212889726170       -2.28400682945857
H            5.17480928919375       -1.51067752836957       -1.23198691864065
H            4.03743135697595       -1.89554289546138        1.63354313016589
H            1.56957949371075       -1.94902101090192        1.37835921845357
H            0.81811041505045        1.45556421314824        2.51493414551808
H           -0.59933131842741        2.64009395602801        4.12571821869830
H           -3.05941911975757        2.56838338637014        3.90475875191301
H           -4.09908090303266        1.35903061314401        2.05783284563213
H           -3.52385011367009       -2.07448422795795        1.40762915510460
H           -4.69591733445573       -4.22204371263640        1.54585073326215
