85
 energy: -126.479382394015 gnorm: 0.000048087691 xtb: 6.7.1 (edcfbbe)
C           -7.35724473869972       -4.88334826910256        1.03990667371069
C           -6.64989217857454       -3.59688385474782        0.73586492225781
C           -7.14585619592608       -2.69993051363325       -0.20162731003058
C           -6.48755010257846       -1.51848540122023       -0.48286573908537
C           -5.30781326915181       -1.19120217396357        0.18530412793557
N           -4.61839221008555       -0.00696058296730       -0.08491343962804
C           -5.27452045994369        1.16518893150049       -0.46834971820861
C           -6.55484853135219        1.47107542619508       -0.00589440041245
C           -7.17542405185211        2.64291495299396       -0.39099027287602
C           -6.54462183708114        3.55141022947577       -1.23261989548877
C           -7.22733679773643        4.81529194045050       -1.66172262127941
C           -5.26370931564483        3.24741481507524       -1.67982672341145
C           -4.63584823589046        2.07464757512749       -1.31176788364881
C           -3.21278404660489        0.00796536327309        0.03982673337586
C           -2.43350355604666       -0.85370108189655       -0.75366476527305
C           -3.00843578840531       -1.70978328630704       -1.72796985725711
C           -2.24052525599665       -2.55447348124566       -2.47012765849778
C           -0.84694066093852       -2.60587905071308       -2.27302974578417
C           -0.25269948679858       -1.77779414011186       -1.37099919329566
C           -1.01168947353728       -0.85517502528163       -0.60322771656986
C           -0.40068550410029        0.03750183084575        0.28915779599737
C            1.07235405659240        0.05236880204644        0.42178899815602
C            1.86914030575536        0.54326845873795       -0.61030160494904
C            3.24578714592782        0.56231550074800       -0.49006016412815
C            3.84519783467439        0.08426131225867        0.66842273018816
P            5.64891242025878        0.03760793260611        0.91595626337097
O            6.03681854874704        0.13398214053543        2.33654855803308
C            6.33233479112439        1.38762962195122       -0.10040549263144
C            6.58163987447060        1.25945553729152       -1.46092190612619
C            7.09616919287271        2.33237087607483       -2.16740141336314
C            7.36251326733040        3.52923879401979       -1.52082117841875
C            7.11861663555423        3.65626481401294       -0.16243102240198
C            6.60399064687013        2.58571145504738        0.54692220067715
C            6.21490977685374       -1.50560459135988        0.12770819566971
C            7.36561181945555       -2.08741882762170        0.64276256619352
C            7.86511712316199       -3.25004631607849        0.08341595548420
C            7.21287324567718       -3.83283715812410       -0.99168402336561
C            6.06050023504715       -3.25658469260957       -1.50287455596565
C            5.55832280437798       -2.09355226727165       -0.94580666755670
C            3.05731975365131       -0.40291888989682        1.70345011888298
C            1.68128185526325       -0.41802787410515        1.58322449966055
C           -1.17751336765849        0.91530998524948        1.05904853996882
C           -0.58456563801191        1.85022698331567        1.94853814956984
C           -1.34573591042626        2.66131216506978        2.73304689521505
C           -2.75090470288815        2.58048100153955        2.68178657528595
C           -3.35852839763124        1.72317603404398        1.81583667383155
C           -2.60332524022856        0.88362696268390        0.95716076325466
C           -4.80315607752482       -2.09047128765626        1.12580369416471
C           -5.46495950758222       -3.27218472182161        1.38834275718057
H           -8.28089121790920       -4.96327996159491        0.47205975870104
H           -7.59407836844834       -4.94611987576084        2.10168287317628
H           -6.72202656351757       -5.73334486060756        0.79115364912214
H           -8.05913413265264       -2.93062873079909       -0.73217242940843
H           -6.88118694161693       -0.84783776567223       -1.23315835523379
H           -7.05574857728154        0.79232434901838        0.66944735335079
H           -8.16698378176558        2.85961952031659       -0.01863094751771
H           -8.03349709125549        5.07253216026642       -0.97865420406126
H           -6.51991279619730        5.64127704382717       -1.70093044498583
H           -7.65302735290591        4.69166223783831       -2.65863723830501
H           -4.75022181770609        3.93821241996433       -2.33385108153372
H           -3.64190270969418        1.85521550990323       -1.67424801116340
H           -4.07552324750471       -1.68078566512545       -1.88343026278032
H           -2.69670900395749       -3.19449557477340       -3.21106171741127
H           -0.25487197986176       -3.30215129508025       -2.84890653479794
H            0.81601574098818       -1.81351534547521       -1.22114659979927
H            1.39944784747613        0.91849896189949       -1.50827164698438
H            3.85586351987949        0.95722909912588       -1.28986100412451
H            6.38381523595757        0.32095891812054       -1.95902601359947
H            7.29296070422186        2.23375186184450       -3.22504084890438
H            7.76621858131703        4.36284695857510       -2.07638047631010
H            7.33061697158293        4.58699801634692        0.34321920267317
H            6.41536592185308        2.65573557059653        1.60958909113722
H            7.85052035124267       -1.61835864159828        1.48814483844770
H            8.76059993323685       -3.70110956441901        0.48530065597772
H            7.60079918391818       -4.74095380306090       -1.42919872419835
H            5.54999876725983       -3.71641130997613       -2.33661050295862
H            4.65485848455766       -1.64616988248647       -1.33522842913128
H            3.54216029118359       -0.75810621358056        2.60262038859419
H            1.06871070379412       -0.79888470958702        2.38780982786374
H            0.49299017648494        1.90728789212609        1.99263061774798
H           -0.87806965847569        3.36592605230248        3.40526205682756
H           -3.34335440870225        3.20722815759084        3.33206923271187
H           -4.43542950624393        1.67115359255354        1.78197356544304
H           -3.88764258641369       -1.85380193246061        1.64874584465778
H           -5.05819670151993       -3.95437495973875        2.12171264421044
