87
 energy: -139.196344364050 gnorm: 0.000042779977 xtb: 6.7.1 (edcfbbe)
C          -14.03950748965994        1.12079760678744        0.84211936137045
C          -12.88167673251407        1.88580480464655        0.96046545648023
C          -11.63456167942549        1.35489259550248        0.68602335081341
C          -11.56981127696024        0.03028874348674        0.27359948100648
C          -12.73890063449001       -0.76096961662728        0.17772197378730
C          -13.97886977435053       -0.20763703721458        0.46044932964552
C          -12.30928357952469       -2.07864951788388       -0.21016678781184
C          -12.98373885627755       -3.26031340058100       -0.47931040459213
C          -12.25004098924677       -4.36857882949955       -0.86342084405786
C          -10.86555921807984       -4.29962771348692       -0.99837769460128
C          -10.17219215461485       -3.13178248629729       -0.73791199787063
C          -10.89980315180238       -2.02417922294301       -0.32230919935872
N          -10.46632287928570       -0.74494374830657       -0.02942727548001
C           -9.13992699784684       -0.31171417733230       -0.03292806872918
C           -8.14619585292714       -1.06047767277893        0.60572493567997
C           -6.84031285242377       -0.63345685129816        0.59906082557794
C           -6.46159388011166        0.56382025399412       -0.03570901817003
C           -5.08818181949279        1.01415422096937       -0.03405194893401
C           -4.01643082564682        0.09585196127250        0.01497207264280
C           -2.71623454888365        0.51430389506266        0.00878519526954
C           -2.40297575635153        1.89445140216327       -0.02032044269280
C           -1.07108813704777        2.34426516723075       -0.00676460808250
N           -0.65405030411489        3.60894234482358        0.00792760498840
N            0.65497886392068        3.60871338636716        0.02823385941724
C            1.07189406166158        2.34390720326450        0.02228615018934
C            2.40368621812980        1.89375590401255        0.03058269127592
C            2.71680110043950        0.51414033018514       -0.01897802504822
C            4.01690825657408        0.09553774310674       -0.02784803305397
C            5.08878124554931        1.01273887406866        0.03784555293099
C            6.46203519346565        0.56204769125257        0.03711605927183
C            7.47429100571874        1.29507991702772        0.68360473819275
C            8.78004760250107        0.86744239229265        0.68572751090596
C            9.14002938487277       -0.31463169888535        0.03056782868670
N           10.46623821788971       -0.74851328512579        0.02502548829798
C           11.57083561492234        0.02933938346122       -0.26692181562512
C           11.63721245746246        1.35859826702630       -0.66379180120295
C           12.88514510623403        1.89170395752292       -0.93011477640467
C           14.04222072386028        1.12456981882439       -0.81841618313686
C           13.98002238070019       -0.20810655257012       -0.45208535593186
C           12.73918717251932       -0.76382144389577       -0.17796347313690
C           12.30792515538330       -2.08553622387287        0.19407125596867
C           12.98098713302100       -3.27055085649106        0.45175701434654
C           12.24571746793114       -4.38240732398067        0.82226223070918
C           10.86095922648140       -4.31406230244601        0.95476504681923
C           10.16893060439595       -3.14300761570138        0.70543814102102
C           10.89824993260649       -2.03135692651516        0.30388092595291
C            8.14782692887129       -1.05452720234519       -0.62067001519606
C            6.84216311847702       -0.62693066627830       -0.61233505373559
C            4.76685137206496        2.38781619020404        0.10235673874994
C            3.47255077369829        2.82099965311857        0.08694173720018
O            0.00035194057245        1.48051975061253        0.00063526563767
C           -3.47174157156728        2.82263713773193       -0.06015698154946
C           -4.76618601357372        2.38995792956718       -0.07894981275492
C           -7.47533123563560        1.30581004030604       -0.66942912604848
C           -8.78123794111993        0.87864092060578       -0.67366421159924
H          -14.99565193085726        1.57125181452171        1.06353968108068
H          -12.95813864305632        2.91500846815098        1.27864196520334
H          -10.74242337942243        1.95012570698676        0.80431329098500
H          -14.87517046773470       -0.80487594610331        0.38896189927951
H          -14.05868873011400       -3.30975415185496       -0.39482147720299
H          -12.75592966588495       -5.29915324948829       -1.07393751001272
H          -10.32118647329568       -5.17572687494366       -1.31836558563318
H           -9.10222797668995       -3.08362800615495       -0.86900189224634
H           -8.41986512614544       -1.95954500178004        1.13760599661961
H           -6.09935735616654       -1.20742881695328        1.13374912813110
H           -4.22738086937900       -0.96327266263989        0.01705369301807
H           -1.90614014574689       -0.20053068193833        0.02566730304306
H            1.90662131240948       -0.20017857945508       -0.04885277781546
H            4.22759025974839       -0.96350034419129       -0.04508938044734
H            7.21494507324618        2.18879200842036        1.22973792294570
H            9.53165826314097        1.42421058370338        1.22522084965137
H           10.74562345301532        1.95572908546556       -0.77661590800885
H           12.96284768067643        2.92427505302257       -1.23684742352544
H           14.99904160816940        1.57678711188785       -1.03320983107586
H           14.87583619528264       -0.80668018709528       -0.38587008792869
H           14.05608412516419       -3.31984298552852        0.36908384972042
H           12.75053497597881       -5.31553231487139        1.02386035428526
H           10.31534193204835       -5.19319822560387        1.26411616597518
H            9.09869615547657       -3.09548747801764        0.83459345862741
H            8.42267627789588       -1.94682250883399       -1.16326012117389
H            6.10260727850691       -1.19345862317302       -1.15679543543839
H            5.56403239944123        3.11548036828251        0.12356346908608
H            3.22906604577742        3.87177089313236        0.11405506482606
H           -3.22808953556047        3.87364859504702       -0.07199797352462
H           -5.56330501110857        3.11795814633637       -0.08731824141955
H           -7.21710189421325        2.20662480633564       -1.20430561651309
H           -9.53406122953363        1.44261821845605       -1.20389147676868
