  38
        -62.04414949
 C         -3.4967574351       -3.1441317560       -0.4105525061
 C         -2.2054208459       -3.3374488310       -0.8659052409
 C         -1.2768050920       -2.3137400121       -0.7858481329
 C         -1.6210676611       -1.0889256137       -0.2256074721
 C         -2.9448997494       -0.8837861803        0.1756155412
 C         -3.8721152587       -1.9093965317        0.0921817362
 O         -3.3666675254        0.3289659459        0.6494923851
 C         -2.5698205848        1.4057715260        0.3359469512
 C         -3.1425331031        2.6613106550        0.4421264665
 C         -2.3972388827        3.7920148709        0.1519898792
 C         -1.0864766652        3.6563473151       -0.2633340235
 C         -0.5112635233        2.4012259562       -0.3827122996
 C         -1.2367131708        1.2603714344       -0.0690992922
 N         -0.6950622326       -0.0404317274       -0.1049282056
 C          0.6513121075       -0.3178855290        0.0833903901
 C          1.0133840266       -1.4551843719        0.8611373355
 C          2.3321969309       -1.7203028389        1.0649816674
 C          3.3158865653       -0.8720854650        0.5036118377
 C          4.6975433104       -1.0776504716        0.6530743586
 C          5.5912526139       -0.2026564669        0.0952474252
 C          5.1360787164        0.9084561157       -0.6285334064
 C          3.7964670440        1.1380739392       -0.7889376681
 C          2.8541963602        0.2516679436       -0.2306719465
 N          1.5432224562        0.4963928413       -0.4242978774
 H         -4.2189601835       -3.9438142258       -0.4603514616
 H         -1.9132174471       -4.2861735924       -1.2887609128
 H         -0.2723842212       -2.4627448638       -1.1521505932
 H         -4.8784040748       -1.7211129317        0.4302562079
 H         -4.1692282617        2.7293618909        0.7649778624
 H         -2.8466397315        4.7682761384        0.2466597058
 H         -0.4984796625        4.5298797955       -0.5000247652
 H          0.5119302713        2.2895815635       -0.6976731335
 H          0.2439021774       -2.0676207911        1.3054009808
 H          2.6415999256       -2.5635136726        1.6672208805
 H          5.0392047246       -1.9372424465        1.2128618484
 H          6.6531062910       -0.3632024301        0.2095784161
 H          5.8568069587        1.5871404229       -1.0610929897
 H          3.4322224908        1.9875123204       -1.3455306265
