  57
  -90.4087478400000       0.125228583636474      !
 C          4.8461959185       -3.3197005253        0.5128837598
 C          3.7051784056       -3.0852962536        1.2620908425
 C          3.0450647046       -1.8760188851        1.1688625926
 C          3.5142245432       -0.8867638558        0.3074355492
 N          2.8343542062        0.3345925323        0.2008476958
 C          3.5487616283        1.5299676468        0.0978037603
 C          4.7567991719        1.6879564439        0.7781816786
 C          5.4669293362        2.8677494571        0.6724058314
 C          4.9864346084        3.9102677444       -0.1031876696
 C          3.7868271640        3.7594040826       -0.7799647064
 C          3.0726918321        2.5812234283       -0.6863264857
 C          1.4432272150        0.3357254367        0.2049960621
 C          0.6997900187        1.3335263089        0.8048367539
 C         -0.6976305920        1.3335560472        0.8063216947
 C         -1.4424557928        0.3359778771        0.2078117800
 N         -2.8337001590        0.3359275379        0.2047677332
 C         -3.5474320429        1.5311242586        0.0971363255
 C         -3.0661188795        2.5831510676       -0.6828328643
 C         -3.7798361370        3.7611302928       -0.7811058294
 C         -4.9843584275        3.9113789350       -0.1131805374
 C         -5.4700983238        2.8682612608        0.6582779880
 C         -4.7604694955        1.6886141347        0.7686774062
 C         -3.5139993239       -0.8853222215        0.3115346423
 C         -3.0480960951       -1.8722779876        1.1771875054
 C         -3.7098341018       -3.0804569192        1.2726158511
 C         -4.8489465545       -3.3161139254        0.5209882206
 C         -5.3208078317       -2.3331640379       -0.3332371493
 C         -4.6590017468       -1.1260487118       -0.4436511659
 C         -0.7199660012       -0.7026931457       -0.4295430663
 N         -1.2165400752       -1.7362489785       -1.1100855230
 S         -0.0018493661       -2.6134434720       -1.6877928738
 N          1.2141941933       -1.7361178411       -1.1131185708
 C          0.7192284316       -0.7025988572       -0.4313406476
 C          4.6619234777       -1.1256501047       -0.4443087129
 C          5.3222732594       -2.3338767228       -0.3357793190
 H          5.3616518301       -4.2650393627        0.5902907669
 H          3.3318772125       -3.8468162212        1.9311141360
 H          2.1619985080       -1.6886426354        1.7628829821
 H          5.1301302307        0.8800615739        1.3896112242
 H          6.3995534691        2.9765364558        1.2061491159
 H          5.5430989776        4.8314462231       -0.1819593284
 H          3.4088020249        4.5629554646       -1.3950325317
 H          2.1441769302        2.4637398893       -1.2247682921
 H          1.2170729148        2.1411377875        1.3005658659
 H         -1.2137810115        2.1415862004        1.3025545454
 H         -2.1344819943        2.4659547240       -1.2158889310
 H         -3.3968370050        4.5654263910       -1.3920676904
 H         -5.5402503407        4.8328569617       -0.1948048406
 H         -6.4067414608        2.9764034179        1.1851701391
 H         -5.1380361174        0.8806641989        1.3773825449
 H         -2.1673370377       -1.6833732401        1.7739467275
 H         -3.3397290523       -3.8399307701        1.9457557018
 H         -5.3659383176       -4.2604224430        0.6003926453
 H         -6.2055432503       -2.5118000728       -0.9265477591
 H         -5.0185920820       -0.3647634779       -1.1199415861
 H          5.0248731439       -0.3621010615       -1.1162991323
 H          6.2089398213       -2.5112120224       -0.9265426743
  57
  -90.4087415300000       0.124395191616926      !
 C          4.9776625209       -3.9160428249        0.0667345524
 C          3.7804334634       -3.7669477898        0.7479656712
 C          3.0700308372       -2.5857544125        0.6658217806
 C          3.5473268630       -1.5295211686       -0.1107724969
 N          2.8344421180       -0.3321766263       -0.2034030055
 C          3.5147851306        0.8895928640       -0.3002980625
 C          3.0431658396        1.8879836842       -1.1497521042
 C          3.7032779200        3.0979370758       -1.2325607647
 C          4.8471152580        3.3240981759       -0.4851613230
 C          5.3258514107        2.3292196772        0.3512129804
 C          4.6654406780        1.1202268406        0.4494750908
 C          1.4432825995       -0.3335381035       -0.2069225190
 C          0.7004014779       -1.3281779465       -0.8126984207
 C         -0.6970246510       -1.3294220367       -0.8137091933
 C         -1.4419390825       -0.3351355754       -0.2102525669
 N         -2.8334999470       -0.3345103838       -0.2102491143
 C         -3.5123247051        0.8865267451       -0.3221214102
 C         -3.0357290149        1.8753272303       -1.1800807352
 C         -3.6950388354        3.0844406986       -1.2800191648
 C         -4.8428806019        3.3192515080       -0.5414655476
 C         -5.3256071805        2.3344565011        0.3044679773
 C         -4.6659087222        1.1266824999        0.4201960561
 C         -3.5462957304       -1.5294989199       -0.0944709732
 C         -4.7574802261       -1.6945250666       -0.7675095428
 C         -5.4675648237       -2.8726936263       -0.6453944145
 C         -4.9837124554       -3.9070154838        0.1390851823
 C         -3.7798602391       -3.7501569051        0.8065853945
 C         -3.0655772606       -2.5735402152        0.6963545862
 C         -0.7202566088        0.6994077175        0.4343951080
 N         -1.2177748845        1.7279332917        1.1216659021
 S         -0.0038226659        2.6013319963        1.7065586918
 N          1.2129647471        1.7287367500        1.1263863520
 C          0.7189584326        0.6999355980        0.4368687271
 C          4.7535607344       -1.6851827425       -0.7945391493
 C          5.4599048038       -2.8683249501       -0.7005398985
 H          5.5303143034       -4.8406027401        0.1341279023
 H          3.4004157580       -4.5748596369        1.3558784981
 H          2.1436085405       -2.4695093138        1.2081441261
 H          2.1588812824        1.7068551242       -1.7436903000
 H          3.3277951665        3.8666285235       -1.8921251499
 H          5.3625522590        4.2700462354       -0.5542353267
 H          6.2152990319        2.4997233855        0.9398902830
 H          5.0308564761        0.3495298255        1.1118701707
 H          1.2181375925       -2.1318491151       -1.3143041124
 H         -1.2132564874       -2.1343214823       -1.3149229638
 H         -2.1482689123        1.6871916124       -1.7671727440
 H         -3.3164990010        3.8451340671       -1.9468570154
 H         -5.3585864115        4.2638551761       -0.6251995364
 H         -6.2177516701        2.5119396855        0.8871133967
 H         -5.0347066610        0.3638738116        1.0897476722
 H         -5.1331534730       -0.8934829272       -1.3864370127
 H         -6.4024288218       -2.9870617278       -1.1739546275
 H         -5.5402488577       -4.8271615559        0.2301882867
 H         -3.3979419880       -4.5480176781        1.4265010628
 H         -2.1343086999       -2.4509256119        1.2288933208
 H          5.1276419396       -0.8736642632       -1.4006322453
 H          6.3902068389       -2.9759533123       -1.2385339647
  57
  -90.4087307000000       0.122977729356252      !
 C          4.8744918812       -1.0636970830       -3.1907871141
 C          5.3399693030       -1.3589114413       -1.9200430980
 C          4.6696274618       -0.8961334321       -0.8048160628
 C          3.5223041720       -0.1201168386       -0.9507184690
 N          2.8348283623        0.3530713961        0.1750719537
 C          3.5416543427        0.7960113583        1.2954567230
 C          3.0540208269        0.5697032208        2.5828604111
 C          3.7623548944        1.0096227272        3.6835803414
 C          4.9668009048        1.6754976067        3.5243113689
 C          5.4577489566        1.9001081622        2.2484232280
 C          4.7538654903        1.4695230505        1.1408804235
 C          1.4435386582        0.3576684766        0.1690146119
 C          0.7009510672        1.3509321006        0.7773981044
 C         -0.6963321997        1.3479316024        0.7860207380
 C         -1.4421119451        0.3507461203        0.1878139084
 N         -2.8330021810        0.3386168315        0.2103251010
 C         -3.5301006737       -0.1443142414       -0.9060646180
 C         -4.6668238586       -0.9323204522       -0.7434161901
 C         -5.3465178618       -1.4049085798       -1.8488455294
 C         -4.9009203188       -1.1072917717       -3.1260857657
 C         -3.7700868182       -0.3249430157       -3.2914319460
 C         -3.0904677441        0.1612548472       -2.1920455024
 C         -3.5317326592        0.7917871321        1.3315170569
 C         -3.0293210516        0.5887471340        2.6172936013
 C         -3.7293680003        1.0406561666        3.7184623344
 C         -4.9405429876        1.6949361202        3.5617339316
 C         -5.4468625935        1.8951633625        2.2877550576
 C         -4.7512143556        1.4529129326        1.1796478063
 C         -0.7204302325       -0.6909046258       -0.4456825634
 N         -1.2172570337       -1.7737929750       -1.0443586019
 S         -0.0029458602       -2.6866318161       -1.5648439465
 N          1.2134785031       -1.7671736053       -1.0611554028
 C          0.7190086627       -0.6871282219       -0.4555386514
 C          3.0626980311        0.1831411677       -2.2303344993
 C          3.7330971547       -0.2934621111       -3.3394952704
 H          5.3982104986       -1.4318469659       -4.0600051429
 H          6.2268678585       -1.9629348839       -1.7958018671
 H          5.0248921048       -1.1375502188        0.1860384738
 H          2.1221642723        0.0396625984        2.7119971924
 H          3.3751861724        0.8227417611        4.6745862479
 H          5.5183053510        2.0156833261        4.3874768388
 H          6.3933408858        2.4229228048        2.1136939211
 H          5.1347176787        1.6536146791        0.1472692599
 H          1.2193332687        2.1649567357        1.2613831211
 H         -1.2119648715        2.1603227083        1.2756023994
 H         -5.0066091434       -1.1748239717        0.2526083612
 H         -6.2254397658       -2.0177165494       -1.7119211569
 H         -5.4315462381       -1.4834800589       -3.9876177129
 H         -3.4197140570       -0.0846258901       -4.2845975824
 H         -2.2155645403        0.7820613161       -2.3212831157
 H         -2.0925224886        0.0673178848        2.7452252746
 H         -3.3300922457        0.8725817239        4.7080822522
 H         -5.4849958720        2.0453470685        4.4252032912
 H         -6.3882747814        2.4076761548        2.1547200544
 H         -5.1441640597        1.6186641457        0.1876107572
 H          2.1802336356        0.7956450166       -2.3470308246
 H          3.3676790311       -0.0542310134       -4.3274677642
  57
  -90.4085932200000       0.106327361385456      !
 C          4.8049722236       -3.3461223864       -0.7222413989
 C          3.6254193507       -3.1001196428       -1.4049497365
 C          2.9808784946       -1.8864966469       -1.2701035745
 C          3.5045853416       -0.9029145407       -0.4332756595
 N          2.8394328952        0.3209258980       -0.2913136739
 C          3.5519287900        1.5148027429       -0.1747511358
 C          4.7565439448        1.6902084634       -0.8570620320
 C          5.4625295332        2.8705653253       -0.7318877123
 C          4.9813740070        3.8971507525        0.0643464771
 C          3.7833059958        3.7305924079        0.7399840276
 C          3.0730894254        2.5519971904        0.6266412304
 C          1.4461972290        0.3254645339       -0.2578914559
 C          0.6890623878        1.2957137663       -0.8831877125
 C         -0.7080937184        1.2952857813       -0.8518807223
 C         -1.4381219434        0.3303244623       -0.1840782280
 N         -2.8268078749        0.3301570842       -0.1484243513
 C         -3.5477627840        1.5272493213       -0.1581088462
 C         -3.0756414873        2.6546052475        0.5143472301
 C         -3.7988924448        3.8309426363        0.4942226618
 C         -5.0036528322        3.9043107792       -0.1862496131
 C         -5.4816352773        2.7853600932       -0.8485913003
 C         -4.7623369279        1.6063969781       -0.8403577033
 C         -3.5129885637       -0.8935846278       -0.1155289818
 C         -4.6267545048       -1.0525424716        0.7047556474
 C         -5.2956224285       -2.2604602281        0.7385544013
 C         -4.8615695243       -3.3234530062       -0.0360803826
 C         -3.7555448694       -3.1676640796       -0.8550343507
 C         -3.0873524255       -1.9600788215       -0.9035613678
 C         -0.6982416586       -0.6743805747        0.4889906802
 N         -1.1741608395       -1.6699741371        1.2376407536
 S          0.0565324396       -2.5215007546        1.8197007998
 N          1.2554038929       -1.6802315735        1.1609235948
 C          0.7402003545       -0.6799343045        0.4456661072
 C          4.6886989691       -1.1558111209        0.2553264752
 C          5.3328328474       -2.3681322265        0.1046093469
 H          5.3092015745       -4.2941458430       -0.8333408318
 H          3.2094787551       -3.8556696335       -2.0554966680
 H          2.0689405421       -1.6898488917       -1.8153467565
 H          5.1302821280        0.8960627717       -1.4859470123
 H          6.3925376316        2.9929370023       -1.2674915128
 H          5.5348714561        4.8190147427        0.1576815935
 H          3.4023928816        4.5226370377        1.3680573460
 H          2.1463050172        2.4216739615        1.1651936289
 H          1.1950301420        2.0796444763       -1.4265648864
 H         -1.2357586667        2.0754901115       -1.3792695840
 H         -2.1436481562        2.5983234405        1.0566866886
 H         -3.4225483342        4.6955829137        1.0210247816
 H         -5.5656311097        4.8256171704       -0.1990413488
 H         -6.4177393488        2.8334684654       -1.3853028643
 H         -5.1333400229        0.7379080773       -1.3637884904
 H         -4.9571011470       -0.2261772775        1.3167239336
 H         -6.1559519137       -2.3753985143        1.3814564018
 H         -5.3822041457       -4.2684666820       -0.0013103624
 H         -3.4158374140       -3.9906426740       -1.4667356587
 H         -2.2331790609       -1.8338839418       -1.5531507432
 H          5.0939383665       -0.3995475604        0.9110148264
 H          6.2487152925       -2.5552187525        0.6458907723
  57
  -90.4085508400000       0.101664314605316      !
 C          4.8405243194       -2.5083909784       -2.2399884917
 C          5.3193670629       -2.1415300189       -0.9931342598
 C          4.6607663437       -1.1858843459       -0.2445026785
 C          3.5121978294       -0.5767572269       -0.7434608967
 N          2.8348815705        0.3927464924        0.0098544609
 C          3.5519369362        1.3426705117        0.7396809457
 C          3.0752032764        1.8115981311        1.9642389240
 C          3.7943392796        2.7489726513        2.6792375826
 C          4.9991312345        3.2310294433        2.1939788120
 C          5.4791547533        2.7667528489        0.9801515789
 C          4.7643209576        1.8344723739        0.2541808463
 C          1.4433288235        0.3940460461        0.0140022312
 C          0.6981697543        1.5572115198        0.0342555310
 C         -0.6991912646        1.5559562540        0.0453442796
 C         -1.4428647994        0.3920672354        0.0135392833
 N         -2.8342884334        0.3897409005        0.0109019231
 C         -3.5472112801        1.3700096117       -0.6822785833
 C         -4.7595712641        1.8450127030       -0.1805736442
 C         -5.4695407003        2.8081619513       -0.8700662709
 C         -4.9847770813        3.3195364302       -2.0628266592
 C         -3.7803195815        2.8535741147       -2.5643448433
 C         -3.0657935701        1.8861664042       -1.8857273282
 C         -3.5167049350       -0.6111875952        0.7168023424
 C         -4.6620646403       -1.1969251311        0.1836763829
 C         -5.3276927446       -2.1822913276        0.8861123517
 C         -4.8592114251       -2.6018997514        2.1202219224
 C         -3.7196196596       -2.0224740807        2.6526866563
 C         -3.0541047728       -1.0286165491        1.9626382158
 C         -0.7185845173       -0.8250185558       -0.0165490470
 N         -1.2134148702       -2.0626798705       -0.0566869204
 S          0.0025676238       -3.1113877962       -0.0606988312
 N          1.2169677319       -2.0618071904       -0.0193655950
 C          0.7205358615       -0.8241770350       -0.0065285843
 C          3.0398844747       -0.9400518425       -2.0026149936
 C          3.6980795830       -1.9051253021       -2.7389232048
 H          5.3546818351       -3.2601489259       -2.8194998074
 H          6.2075708587       -2.6105271182       -0.5957462463
 H          5.0263290324       -0.9092450398        0.7333210268
 H          2.1433193945        1.4291160909        2.3530596469
 H          3.4152076924        3.0991922594        3.6281345842
 H          5.5593834743        3.9613664761        2.7574641228
 H          6.4152818022        3.1393860149        0.5909824894
 H          5.1374513230        1.4811627863       -0.6954895556
 H          1.2144409528        2.5052227938        0.0521247463
 H         -1.2168630184        2.5031116122        0.0673250723
 H         -5.1362270317        1.4544190589        0.7529390360
 H         -6.4055370197        3.1677007976       -0.4686906870
 H         -5.5412946086        4.0736875473       -2.5978133097
 H         -3.3978530292        3.2401992754       -3.4976524572
 H         -2.1338751201        1.5168679643       -2.2869084495
 H         -5.0195674166       -0.8785521468       -0.7843044855
 H         -6.2136994068       -2.6323383301        0.4626065879
 H         -5.3792561476       -3.3760361175        2.6639057146
 H         -3.3514637866       -2.3407832333        3.6171514875
 H         -2.1730525248       -0.5670470121        2.3845916629
 H          2.1566448712       -0.4594580797       -2.3983154341
 H          3.3219578312       -2.1818114678       -3.7129984720
  57
  -90.4085464000000       0.101187776860529      !
 C          4.8070650021       -2.6832680146        2.0344596200
 C          3.6783183303       -2.0987288723        2.5843087077
 C          3.0312592272       -1.0735559966        1.9231668690
 C          3.5019375528       -0.6291461688        0.6897724465
 N          2.8331000959        0.4009745629        0.0117030320
 C          3.5581224365        1.4034020526       -0.6340366252
 C          4.7761049977        1.8386178759       -0.1097832420
 C          5.4988326027        2.8248334611       -0.7517078903
 C          5.0216616221        3.3996735905       -1.9183721561
 C          3.8121756369        2.9730797830       -2.4423808386
 C          3.0850774570        1.9826609285       -1.8120144568
 C          1.4417360371        0.4047724545        0.0032298995
 C          0.6953828402        1.5652962771        0.0714909211
 C         -0.7020642356        1.5627442253        0.0609988937
 C         -1.4441508455        0.3987262014        0.0058999947
 N         -2.8357147629        0.3937325067        0.0133910913
 C         -3.5475739562        1.3098142207        0.7898576641
 C         -4.7711456227        1.8100920553        0.3425308746
 C         -5.4798754142        2.7101516409        1.1137460207
 C         -4.9826993235        3.1335208923        2.3355890565
 C         -3.7672096717        2.6423012791        2.7834936300
 C         -3.0542293045        1.7364252219        2.0233377269
 C         -3.5164818387       -0.5563625939       -0.7613131647
 C         -4.6512893910       -1.1933552468       -0.2659597284
 C         -5.3105324553       -2.1318037286       -1.0355564171
 C         -4.8462939648       -2.4530030332       -2.3003746804
 C         -3.7181251189       -1.8210303171       -2.7962377493
 C         -3.0592237802       -0.8732696616       -2.0384377610
 C         -0.7185029008       -0.8161230257       -0.0590471305
 N         -1.2115043176       -2.0539855895       -0.1137121883
 S          0.0059111547       -3.0979435651       -0.1921007677
 N          1.2187635290       -2.0464845568       -0.1529307872
 C          0.7203597166       -0.8123224337       -0.0702310920
 C          4.6373402120       -1.2183372181        0.1400673617
 C          5.2841933549       -2.2361129752        0.8133877799
 H          5.3121757838       -3.4828344319        2.5549505858
 H          3.3042339901       -2.4378625930        3.5393028563
 H          2.1574564797       -0.6090920921        2.3573035489
 H          5.1469897335        1.3994297677        0.8042452383
 H          6.4387013229        3.1530069484       -0.3326862761
 H          5.5875809260        4.1726316243       -2.4154236417
 H          3.4352187585        3.4095294387       -3.3557439998
 H          2.1497843530        1.6442673428       -2.2321807125
 H          1.2103236691        2.5125892002        0.1264715546
 H         -1.2211447845        2.5080317451        0.1121141458
 H         -5.1577438029        1.4884178485       -0.6128866736
 H         -6.4245087182        3.0906072254        0.7536405209
 H         -5.5377331902        3.8396719124        2.9339914798
 H         -3.3748828952        2.9597266466        3.7386963617
 H         -2.1140401335        1.3459181460        2.3833613820
 H         -5.0051187977       -0.9526723817        0.7255825933
 H         -6.1874589564       -2.6234714939       -0.6406558590
 H         -5.3607217274       -3.1916714378       -2.8962573811
 H         -3.3532311464       -2.0624974406       -3.7840002502
 H         -2.1857665696       -0.3718143103       -2.4299673059
 H          5.0013610529       -0.8772218579       -0.8177441985
 H          6.1622417472       -2.6895025207        0.3774525493
  57
  -90.4085453700000       0.101077548267000      !
 C          4.8294369769       -2.5990568835       -2.1573952066
 C          3.7077651554       -1.9856930303       -2.6898263754
 C          3.0526980664       -0.9954772587       -1.9845841388
 C          3.5083472930       -0.6162143640       -0.7242962090
 N          2.8346220622        0.3791761628       -0.0009411746
 C          3.5582292989        1.3420861074        0.7047537353
 C          4.7776657092        1.8063577348        0.2099121422
 C          5.4990137981        2.7531823246        0.9101272117
 C          5.0190073647        3.2589185119        2.1072131590
 C          3.8082351923        2.8027663622        2.6026139241
 C          3.0824519788        1.8512936950        1.9135296535
 C          1.4435962885        0.3901605366       -0.0021902740
 C          0.7050729372        1.5578042010        0.0009755933
 C         -0.6922320672        1.5650562428        0.0146377231
 C         -1.4430900083        0.4054174275       -0.0013199929
 N         -2.8344369380        0.4088237804        0.0039850166
 C         -3.5507006311        1.3917141430       -0.6812069112
 C         -4.7636309754        1.8598324494       -0.1743123910
 C         -5.4755428613        2.8287453818       -0.8537484149
 C         -4.9926422579        3.3529343102       -2.0415736648
 C         -3.7888191724        2.8923417788       -2.5494386852
 C         -3.0725553413        1.9189823498       -1.8813532947
 C         -3.5128152455       -0.5912610088        0.7163320384
 C         -3.0467435613       -0.9992832583        1.9640302744
 C         -3.7017703793       -1.9980985028        2.6568296836
 C         -4.8348743326       -2.5911782553        2.1252993007
 C         -5.3087631176       -2.1786358043        0.8907445557
 C         -4.6534554509       -1.1880916012        0.1856624861
 C         -0.7256189832       -0.8160724425       -0.0194692388
 N         -1.2276321336       -2.0513536701       -0.0453209096
 S         -0.0181719198       -3.1071483909       -0.0346935451
 N          1.2023908908       -2.0645058072       -0.0048575898
 C          0.7133512282       -0.8237999807       -0.0081189234
 C          4.6365193001       -1.2346626720       -0.1918876388
 C          5.2915117926       -2.2166135212       -0.9089144602
 H          5.3407560641       -3.3710219908       -2.7123651403
 H          3.3458959116       -2.2742387744       -3.6658242321
 H          2.1847269122       -0.5081850006       -2.4050128156
 H          5.1508102711        1.4205282062       -0.7269945743
 H          6.4401647453        3.1047495897        0.5135424453
 H          5.5838132336        4.0013013751        2.6500173152
 H          3.4291689688        3.1851684003        3.5390411761
 H          2.1459604667        1.4892435509        2.3106577529
 H          1.2265302150        2.5031039815        0.0057833773
 H         -1.2035569598        2.5157893226        0.0282814862
 H         -5.1392621123        1.4601078716        0.7557504643
 H         -6.4119280121        3.1828512678       -0.4480319571
 H         -5.5493911174        4.1133195268       -2.5673695843
 H         -3.4072802090        3.2892682795       -3.4787827160
 H         -2.1414082228        1.5540876308       -2.2882166766
 H         -2.1697624609       -0.5280640329        2.3841070954
 H         -3.3298919874       -2.3106230913        3.6215720381
 H         -5.3455533270       -3.3707578484        2.6700949462
 H         -6.1899762790       -2.6390828297        0.4685294520
 H         -5.0144974629       -0.8752733350       -0.7829613075
 H          4.9881946962       -0.9444617470        0.7871040863
 H          6.1628303094       -2.6942114261       -0.4853943586
  57
  -90.4085231300000       9.872653680620518E-002 !
 C          4.8891129130       -2.7909969339        1.8233152179
 C          5.3586529545       -1.4888437762        1.7723983106
 C          4.6827912707       -0.5295806941        1.0441276156
 C          3.5254077555       -0.8678770638        0.3472277508
 N          2.8324525719        0.0975456934       -0.3955002258
 C          3.5289489107        1.0534070441       -1.1375948694
 C          3.0312596416        2.3497256702       -1.2732498155
 C          3.7247571350        3.2892992477       -2.0102176702
 C          4.9245459478        2.9589243087       -2.6188663152
 C          5.4259013032        1.6745641583       -2.4839193224
 C          4.7371032567        0.7257027222       -1.7539905540
 C          1.4406904731        0.0889808119       -0.3870922708
 C          0.6887482733        0.3788511795       -1.5092033303
 C         -0.7082716854        0.3889594126       -1.4967958162
 C         -1.4442995651        0.0907446676       -0.3662756232
 N         -2.8357991515        0.0964936108       -0.3551670034
 C         -3.5061718199        0.5673317158        0.7823119706
 C         -3.0217214038        1.6775690953        1.4701704414
 C         -3.6735834583        2.1335367952        2.5988622194
 C         -4.8214110926        1.5019105467        3.0477411564
 C         -5.3121754267        0.4043990948        2.3599484594
 C         -4.6601869481       -0.0658872047        1.2369510436
 C         -3.5567695584       -0.3568446398       -1.4614215139
 C         -4.7664599158        0.2453728103       -1.8096035641
 C         -5.4832830041       -0.2100048520       -2.8986669166
 C         -5.0081143080       -1.2634861451       -3.6625635958
 C         -3.8057143391       -1.8627634898       -3.3237723169
 C         -3.0844780339       -1.4189354976       -2.2331127068
 C         -0.7128980513       -0.2255616796        0.8048528973
 N         -1.2001799399       -0.5535585805        2.0020166877
 S          0.0225314028       -0.8088223794        3.0113849262
 N          1.2307316934       -0.5261361432        1.9920103068
 C          0.7262906675       -0.2200926321        0.7961776142
 C          3.0608376736       -2.1804380491        0.3937122783
 C          3.7371809552       -3.1303369671        1.1333898453
 H          5.4176318449       -3.5370087177        2.3973136610
 H          6.2536247886       -1.2155724832        2.3119684078
 H          5.0415235356        0.4886163075        1.0146325624
 H          2.1022430378        2.6148585498       -0.7912308524
 H          3.3281575399        4.2895374088       -2.1036549091
 H          5.4646885241        3.6962591598       -3.1927832038
 H          6.3586873350        1.4057929505       -2.9575003007
 H          5.1261557701       -0.2768781434       -1.6580423006
 H          1.2001184240        0.6199916943       -2.4289635534
 H         -1.2322800279        0.6305987776       -2.4092568921
 H         -2.1345415413        2.1798535154        1.1122669180
 H         -3.2888907157        2.9941662569        3.1260239747
 H         -5.3307729725        1.8631796161        3.9282668544
 H         -6.2049393830       -0.0956128873        2.7059356613
 H         -5.0344502831       -0.9301985423        0.7088459764
 H         -5.1355352096        1.0722359125       -1.2215351633
 H         -6.4169271474        0.2673075934       -3.1575100057
 H         -5.5701962077       -1.6151944675       -4.5140246429
 H         -3.4300463071       -2.6895295990       -3.9086313347
 H         -2.1543366147       -1.8971495792       -1.9650104934
 H          2.1700804685       -2.4492335499       -0.1556556186
 H          3.3679046117       -4.1450427815        1.1636218771
  57
  -90.4084518400000       9.155272751730675E-002 !
 C          4.8219231483       -2.4232224337       -2.3648274369
 C          5.3075729111       -2.1064013405       -1.1068753100
 C          4.6558364405       -1.1785985041       -0.3182058327
 C          3.5065748050       -0.5474505080       -0.7873470776
 N          2.8336809555        0.3951707369        0.0019171449
 C          3.5453163094        1.3070138756        0.7826964707
 C          3.0464720960        1.7301673097        2.0151618860
 C          3.7584212717        2.6296061377        2.7838377100
 C          4.9777089108        3.1190576038        2.3447528750
 C          5.4786594687        2.7017840511        1.1223756308
 C          4.7714675687        1.8076053885        0.3430535039
 C          1.4413066313        0.3993429706        0.0008632786
 C          0.6993289056        1.5642016121        0.0251185001
 C         -0.6982615173        1.5651736817        0.0344041989
 C         -1.4418937642        0.4016039291        0.0063197268
 N         -2.8345113297        0.3987023560        0.0120616789
 C         -3.5492486449        1.3438540783       -0.7244816196
 C         -4.7736113513        1.8248467929       -0.2586578350
 C         -5.4834158960        2.7527865615       -0.9952883971
 C         -4.9865654772        3.2239901800       -2.1996320174
 C         -3.7691574991        2.7536607661       -2.6646870533
 C         -3.0551703419        1.8204051842       -1.9394819891
 C         -3.5025720173       -0.5748365531        0.7671610614
 C         -4.6560716370       -1.1856048354        0.2815505002
 C         -5.3026256939       -2.1442990562        1.0367872151
 C         -4.8073366896       -2.5128701662        2.2768717405
 C         -3.6589449347       -1.9095008848        2.7616947760
 C         -3.0120874643       -0.9420226134        2.0184880989
 C         -0.7206973420       -0.8168804330       -0.0260413532
 N         -1.2181393217       -2.0534357917       -0.0646976952
 S         -0.0035903551       -3.1038488347       -0.0813147414
 N          1.2130425918       -2.0561850611       -0.0456629400
 C          0.7180063853       -0.8182194535       -0.0258956779
 C          3.0258789887       -0.8622906581       -2.0565701335
 C          3.6781032185       -1.7988847560       -2.8337595444
 H          5.3317531166       -3.1524026248       -2.9761385653
 H          6.1967704804       -2.5924345851       -0.7329204501
 H          5.0266780241       -0.9422216272        0.6680753913
 H          2.1031157546        1.3411632145        2.3682035293
 H          3.3618852877        2.9436856252        3.7382337922
 H          5.5314823721        3.8213687185        2.9488282328
 H          6.4266721692        3.0805192496        0.7694975172
 H          5.1610726587        1.4916042531       -0.6130158059
 H          1.2187330536        2.5104023724        0.0495348765
 H         -1.2162995922        2.5122173253        0.0553767258
 H         -5.1609330490        1.4660748392        0.6832315487
 H         -6.4288980734        3.1173536425       -0.6212083387
 H         -5.5436926538        3.9498706613       -2.7718113344
 H         -3.3758586976        3.1098406609       -3.6055942207
 H         -2.1135339696        1.4464462965       -2.3130027065
 H         -5.0344285657       -0.9084764461       -0.6911750078
 H         -6.1948317789       -2.6145781093        0.6500439547
 H         -5.3136598591       -3.2654002831        2.8622116782
 H         -3.2694412921       -2.1872890669        3.7302490234
 H         -2.1235758161       -0.4620106333        2.4030135272
 H          2.1407881350       -0.3658624104       -2.4278470863
 H          3.2950343057       -2.0379336887       -3.8151477367
  57
  -90.4072930800000       2.686222994853388E-002 !
 C          4.7126904286       -3.4214877830       -0.8906947620
 C          5.2807957292       -2.5051465948       -0.0207510126
 C          4.6791506216       -1.2822030134        0.2020657034
 C          3.4966697187       -0.9540181548       -0.4577624564
 N          2.8706759407        0.2798201705       -0.2585958227
 C          3.5946046738        1.4497933506       -0.0463185534
 C          3.0774875009        2.4621018278        0.7640479155
 C          3.7964180202        3.6210438675        0.9784538038
 C          5.0413445445        3.7942044617        0.3959418537
 C          5.5574019682        2.7961484580       -0.4147066303
 C          4.8433388155        1.6362438419       -0.6418630266
 C          1.4719965439        0.3074371853       -0.2424812427
 C          0.7358791106        1.2346709125       -0.9488130312
 C         -0.6619122935        1.2405657817       -0.9482460466
 C         -1.4135622143        0.3368257198       -0.2184481187
 N         -2.7985180445        0.3450951685       -0.2171258338
 C         -3.5141584696       -0.8410499072        0.0229227734
 C         -4.6272639802       -0.8170487424        0.8585224599
 C         -5.3347308570       -1.9775858171        1.1042352411
 C         -4.9390766850       -3.1725751893        0.5267141887
 C         -3.8370757326       -3.1975267756       -0.3118507693
 C         -3.1311211431       -2.0393014451       -0.5728613491
 C         -3.5224691444        1.5115447085       -0.4955223943
 C         -3.1231742178        2.7489333398        0.0074756198
 C         -3.8527653186        3.8852706314       -0.2841635257
 C         -4.9907694352        3.8079073867       -1.0706246336
 C         -5.3994077478        2.5785980483       -1.5613551257
 C         -4.6734781591        1.4378769264       -1.2800788974
 C         -0.6908043001       -0.6105041433        0.5531205459
 N         -1.1808641132       -1.5351304816        1.3799342759
 S          0.0358407150       -2.3521120328        2.0353086894
 N          1.2486530335       -1.5816967675        1.3171300565
 C          0.7480439488       -0.6356554291        0.5226137485
 C          2.9264572555       -1.8809984397       -1.3295104830
 C          3.5300516739       -3.1050675938       -1.5380042694
 H          5.1870014630       -4.3760074195       -1.0616064976
 H          6.1972278331       -2.7491928092        0.4964522956
 H          5.1160642652       -0.5774269430        0.8933440677
 H          2.1139918177        2.3259323147        1.2322147999
 H          3.3862425224        4.3910635327        1.6155492470
 H          5.6037538549        4.6984174833        0.5718687065
 H          6.5237220536        2.9246032763       -0.8801474621
 H          5.2460010497        0.8669295209       -1.2834087272
 H          1.2589199679        1.9759112744       -1.5345789516
 H         -1.1710911928        1.9734942584       -1.5550006624
 H         -4.9258849586        0.1145981499        1.3164789651
 H         -6.1928111447       -1.9506140499        1.7596653296
 H         -5.4881409348       -4.0798785421        0.7284119629
 H         -3.5299957378       -4.1248269461       -0.7727352517
 H         -2.2798195759       -2.0561072777       -1.2378128060
 H         -2.2434951035        2.8114225393        0.6304841683
 H         -3.5337764995        4.8381980095        0.1117216879
 H         -5.5564882579        4.6986796514       -1.2970564150
 H         -6.2851894781        2.5078959537       -2.1751589880
 H         -4.9881259592        0.4806158418       -1.6685273429
 H          2.0119022299       -1.6294427615       -1.8472820974
 H          3.0799315947       -3.8125350712       -2.2192881023
