  57
  -90.0701776835000       0.328759492799295      !
 C          4.8461959185       -3.3197005253        0.5128837598
 C          3.7051784056       -3.0852962536        1.2620908425
 C          3.0450647046       -1.8760188851        1.1688625926
 C          3.5142245432       -0.8867638558        0.3074355492
 N          2.8343542062        0.3345925323        0.2008476958
 C          3.5487616283        1.5299676468        0.0978037603
 C          4.7567991719        1.6879564439        0.7781816786
 C          5.4669293362        2.8677494571        0.6724058314
 C          4.9864346084        3.9102677444       -0.1031876696
 C          3.7868271640        3.7594040826       -0.7799647064
 C          3.0726918321        2.5812234283       -0.6863264857
 C          1.4432272150        0.3357254367        0.2049960621
 C          0.6997900187        1.3335263089        0.8048367539
 C         -0.6976305920        1.3335560472        0.8063216947
 C         -1.4424557928        0.3359778771        0.2078117800
 N         -2.8337001590        0.3359275379        0.2047677332
 C         -3.5474320429        1.5311242586        0.0971363255
 C         -3.0661188795        2.5831510676       -0.6828328643
 C         -3.7798361370        3.7611302928       -0.7811058294
 C         -4.9843584275        3.9113789350       -0.1131805374
 C         -5.4700983238        2.8682612608        0.6582779880
 C         -4.7604694955        1.6886141347        0.7686774062
 C         -3.5139993239       -0.8853222215        0.3115346423
 C         -3.0480960951       -1.8722779876        1.1771875054
 C         -3.7098341018       -3.0804569192        1.2726158511
 C         -4.8489465545       -3.3161139254        0.5209882206
 C         -5.3208078317       -2.3331640379       -0.3332371493
 C         -4.6590017468       -1.1260487118       -0.4436511659
 C         -0.7199660012       -0.7026931457       -0.4295430663
 N         -1.2165400752       -1.7362489785       -1.1100855230
 S         -0.0018493661       -2.6134434720       -1.6877928738
 N          1.2141941933       -1.7361178411       -1.1131185708
 C          0.7192284316       -0.7025988572       -0.4313406476
 C          4.6619234777       -1.1256501047       -0.4443087129
 C          5.3222732594       -2.3338767228       -0.3357793190
 H          5.3616518301       -4.2650393627        0.5902907669
 H          3.3318772125       -3.8468162212        1.9311141360
 H          2.1619985080       -1.6886426354        1.7628829821
 H          5.1301302307        0.8800615739        1.3896112242
 H          6.3995534691        2.9765364558        1.2061491159
 H          5.5430989776        4.8314462231       -0.1819593284
 H          3.4088020249        4.5629554646       -1.3950325317
 H          2.1441769302        2.4637398893       -1.2247682921
 H          1.2170729148        2.1411377875        1.3005658659
 H         -1.2137810115        2.1415862004        1.3025545454
 H         -2.1344819943        2.4659547240       -1.2158889310
 H         -3.3968370050        4.5654263910       -1.3920676904
 H         -5.5402503407        4.8328569617       -0.1948048406
 H         -6.4067414608        2.9764034179        1.1851701391
 H         -5.1380361174        0.8806641989        1.3773825449
 H         -2.1673370377       -1.6833732401        1.7739467275
 H         -3.3397290523       -3.8399307701        1.9457557018
 H         -5.3659383176       -4.2604224430        0.6003926453
 H         -6.2055432503       -2.5118000728       -0.9265477591
 H         -5.0185920820       -0.3647634779       -1.1199415861
 H          5.0248731439       -0.3621010615       -1.1162991323
 H          6.2089398213       -2.5112120224       -0.9265426743
  57
  -90.0700717208000       0.293887569042559      !
 C          4.8049722236       -3.3461223864       -0.7222413989
 C          3.6254193507       -3.1001196428       -1.4049497365
 C          2.9808784946       -1.8864966469       -1.2701035745
 C          3.5045853416       -0.9029145407       -0.4332756595
 N          2.8394328952        0.3209258980       -0.2913136739
 C          3.5519287900        1.5148027429       -0.1747511358
 C          4.7565439448        1.6902084634       -0.8570620320
 C          5.4625295332        2.8705653253       -0.7318877123
 C          4.9813740070        3.8971507525        0.0643464771
 C          3.7833059958        3.7305924079        0.7399840276
 C          3.0730894254        2.5519971904        0.6266412304
 C          1.4461972290        0.3254645339       -0.2578914559
 C          0.6890623878        1.2957137663       -0.8831877125
 C         -0.7080937184        1.2952857813       -0.8518807223
 C         -1.4381219434        0.3303244623       -0.1840782280
 N         -2.8268078749        0.3301570842       -0.1484243513
 C         -3.5477627840        1.5272493213       -0.1581088462
 C         -3.0756414873        2.6546052475        0.5143472301
 C         -3.7988924448        3.8309426363        0.4942226618
 C         -5.0036528322        3.9043107792       -0.1862496131
 C         -5.4816352773        2.7853600932       -0.8485913003
 C         -4.7623369279        1.6063969781       -0.8403577033
 C         -3.5129885637       -0.8935846278       -0.1155289818
 C         -4.6267545048       -1.0525424716        0.7047556474
 C         -5.2956224285       -2.2604602281        0.7385544013
 C         -4.8615695243       -3.3234530062       -0.0360803826
 C         -3.7555448694       -3.1676640796       -0.8550343507
 C         -3.0873524255       -1.9600788215       -0.9035613678
 C         -0.6982416586       -0.6743805747        0.4889906802
 N         -1.1741608395       -1.6699741371        1.2376407536
 S          0.0565324396       -2.5215007546        1.8197007998
 N          1.2554038929       -1.6802315735        1.1609235948
 C          0.7402003545       -0.6799343045        0.4456661072
 C          4.6886989691       -1.1558111209        0.2553264752
 C          5.3328328474       -2.3681322265        0.1046093469
 H          5.3092015745       -4.2941458430       -0.8333408318
 H          3.2094787551       -3.8556696335       -2.0554966680
 H          2.0689405421       -1.6898488917       -1.8153467565
 H          5.1302821280        0.8960627717       -1.4859470123
 H          6.3925376316        2.9929370023       -1.2674915128
 H          5.5348714561        4.8190147427        0.1576815935
 H          3.4023928816        4.5226370377        1.3680573460
 H          2.1463050172        2.4216739615        1.1651936289
 H          1.1950301420        2.0796444763       -1.4265648864
 H         -1.2357586667        2.0754901115       -1.3792695840
 H         -2.1436481562        2.5983234405        1.0566866886
 H         -3.4225483342        4.6955829137        1.0210247816
 H         -5.5656311097        4.8256171704       -0.1990413488
 H         -6.4177393488        2.8334684654       -1.3853028643
 H         -5.1333400229        0.7379080773       -1.3637884904
 H         -4.9571011470       -0.2261772775        1.3167239336
 H         -6.1559519137       -2.3753985143        1.3814564018
 H         -5.3822041457       -4.2684666820       -0.0013103624
 H         -3.4158374140       -3.9906426740       -1.4667356587
 H         -2.2331790609       -1.8338839418       -1.5531507432
 H          5.0939383665       -0.3995475604        0.9110148264
 H          6.2487152925       -2.5552187525        0.6458907723
  57
  -90.0692941326000       0.129070330560988      !
 C          4.7126904286       -3.4214877830       -0.8906947620
 C          5.2807957292       -2.5051465948       -0.0207510126
 C          4.6791506216       -1.2822030134        0.2020657034
 C          3.4966697187       -0.9540181548       -0.4577624564
 N          2.8706759407        0.2798201705       -0.2585958227
 C          3.5946046738        1.4497933506       -0.0463185534
 C          3.0774875009        2.4621018278        0.7640479155
 C          3.7964180202        3.6210438675        0.9784538038
 C          5.0413445445        3.7942044617        0.3959418537
 C          5.5574019682        2.7961484580       -0.4147066303
 C          4.8433388155        1.6362438419       -0.6418630266
 C          1.4719965439        0.3074371853       -0.2424812427
 C          0.7358791106        1.2346709125       -0.9488130312
 C         -0.6619122935        1.2405657817       -0.9482460466
 C         -1.4135622143        0.3368257198       -0.2184481187
 N         -2.7985180445        0.3450951685       -0.2171258338
 C         -3.5141584696       -0.8410499072        0.0229227734
 C         -4.6272639802       -0.8170487424        0.8585224599
 C         -5.3347308570       -1.9775858171        1.1042352411
 C         -4.9390766850       -3.1725751893        0.5267141887
 C         -3.8370757326       -3.1975267756       -0.3118507693
 C         -3.1311211431       -2.0393014451       -0.5728613491
 C         -3.5224691444        1.5115447085       -0.4955223943
 C         -3.1231742178        2.7489333398        0.0074756198
 C         -3.8527653186        3.8852706314       -0.2841635257
 C         -4.9907694352        3.8079073867       -1.0706246336
 C         -5.3994077478        2.5785980483       -1.5613551257
 C         -4.6734781591        1.4378769264       -1.2800788974
 C         -0.6908043001       -0.6105041433        0.5531205459
 N         -1.1808641132       -1.5351304816        1.3799342759
 S          0.0358407150       -2.3521120328        2.0353086894
 N          1.2486530335       -1.5816967675        1.3171300565
 C          0.7480439488       -0.6356554291        0.5226137485
 C          2.9264572555       -1.8809984397       -1.3295104830
 C          3.5300516739       -3.1050675938       -1.5380042694
 H          5.1870014630       -4.3760074195       -1.0616064976
 H          6.1972278331       -2.7491928092        0.4964522956
 H          5.1160642652       -0.5774269430        0.8933440677
 H          2.1139918177        2.3259323147        1.2322147999
 H          3.3862425224        4.3910635327        1.6155492470
 H          5.6037538549        4.6984174833        0.5718687065
 H          6.5237220536        2.9246032763       -0.8801474621
 H          5.2460010497        0.8669295209       -1.2834087272
 H          1.2589199679        1.9759112744       -1.5345789516
 H         -1.1710911928        1.9734942584       -1.5550006624
 H         -4.9258849586        0.1145981499        1.3164789651
 H         -6.1928111447       -1.9506140499        1.7596653296
 H         -5.4881409348       -4.0798785421        0.7284119629
 H         -3.5299957378       -4.1248269461       -0.7727352517
 H         -2.2798195759       -2.0561072777       -1.2378128060
 H         -2.2434951035        2.8114225393        0.6304841683
 H         -3.5337764995        4.8381980095        0.1117216879
 H         -5.5564882579        4.6986796514       -1.2970564150
 H         -6.2851894781        2.5078959537       -2.1751589880
 H         -4.9881259592        0.4806158418       -1.6685273429
 H          2.0119022299       -1.6294427615       -1.8472820974
 H          3.0799315947       -3.8125350712       -2.2192881023
  57
  -90.0692859749000       0.127960934468844      !
 C          4.8405243194       -2.5083909784       -2.2399884917
 C          5.3193670629       -2.1415300189       -0.9931342598
 C          4.6607663437       -1.1858843459       -0.2445026785
 C          3.5121978294       -0.5767572269       -0.7434608967
 N          2.8348815705        0.3927464924        0.0098544609
 C          3.5519369362        1.3426705117        0.7396809457
 C          3.0752032764        1.8115981311        1.9642389240
 C          3.7943392796        2.7489726513        2.6792375826
 C          4.9991312345        3.2310294433        2.1939788120
 C          5.4791547533        2.7667528489        0.9801515789
 C          4.7643209576        1.8344723739        0.2541808463
 C          1.4433288235        0.3940460461        0.0140022312
 C          0.6981697543        1.5572115198        0.0342555310
 C         -0.6991912646        1.5559562540        0.0453442796
 C         -1.4428647994        0.3920672354        0.0135392833
 N         -2.8342884334        0.3897409005        0.0109019231
 C         -3.5472112801        1.3700096117       -0.6822785833
 C         -4.7595712641        1.8450127030       -0.1805736442
 C         -5.4695407003        2.8081619513       -0.8700662709
 C         -4.9847770813        3.3195364302       -2.0628266592
 C         -3.7803195815        2.8535741147       -2.5643448433
 C         -3.0657935701        1.8861664042       -1.8857273282
 C         -3.5167049350       -0.6111875952        0.7168023424
 C         -4.6620646403       -1.1969251311        0.1836763829
 C         -5.3276927446       -2.1822913276        0.8861123517
 C         -4.8592114251       -2.6018997514        2.1202219224
 C         -3.7196196596       -2.0224740807        2.6526866563
 C         -3.0541047728       -1.0286165491        1.9626382158
 C         -0.7185845173       -0.8250185558       -0.0165490470
 N         -1.2134148702       -2.0626798705       -0.0566869204
 S          0.0025676238       -3.1113877962       -0.0606988312
 N          1.2169677319       -2.0618071904       -0.0193655950
 C          0.7205358615       -0.8241770350       -0.0065285843
 C          3.0398844747       -0.9400518425       -2.0026149936
 C          3.6980795830       -1.9051253021       -2.7389232048
 H          5.3546818351       -3.2601489259       -2.8194998074
 H          6.2075708587       -2.6105271182       -0.5957462463
 H          5.0263290324       -0.9092450398        0.7333210268
 H          2.1433193945        1.4291160909        2.3530596469
 H          3.4152076924        3.0991922594        3.6281345842
 H          5.5593834743        3.9613664761        2.7574641228
 H          6.4152818022        3.1393860149        0.5909824894
 H          5.1374513230        1.4811627863       -0.6954895556
 H          1.2144409528        2.5052227938        0.0521247463
 H         -1.2168630184        2.5031116122        0.0673250723
 H         -5.1362270317        1.4544190589        0.7529390360
 H         -6.4055370197        3.1677007976       -0.4686906870
 H         -5.5412946086        4.0736875473       -2.5978133097
 H         -3.3978530292        3.2401992754       -3.4976524572
 H         -2.1338751201        1.5168679643       -2.2869084495
 H         -5.0195674166       -0.8785521468       -0.7843044855
 H         -6.2136994068       -2.6323383301        0.4626065879
 H         -5.3792561476       -3.3760361175        2.6639057146
 H         -3.3514637866       -2.3407832333        3.6171514875
 H         -2.1730525248       -0.5670470121        2.3845916629
 H          2.1566448712       -0.4594580797       -2.3983154341
 H          3.3219578312       -2.1818114678       -3.7129984720
  57
  -90.0692278039000       0.120321673128315      !
 C          4.8219231483       -2.4232224337       -2.3648274369
 C          5.3075729111       -2.1064013405       -1.1068753100
 C          4.6558364405       -1.1785985041       -0.3182058327
 C          3.5065748050       -0.5474505080       -0.7873470776
 N          2.8336809555        0.3951707369        0.0019171449
 C          3.5453163094        1.3070138756        0.7826964707
 C          3.0464720960        1.7301673097        2.0151618860
 C          3.7584212717        2.6296061377        2.7838377100
 C          4.9777089108        3.1190576038        2.3447528750
 C          5.4786594687        2.7017840511        1.1223756308
 C          4.7714675687        1.8076053885        0.3430535039
 C          1.4413066313        0.3993429706        0.0008632786
 C          0.6993289056        1.5642016121        0.0251185001
 C         -0.6982615173        1.5651736817        0.0344041989
 C         -1.4418937642        0.4016039291        0.0063197268
 N         -2.8345113297        0.3987023560        0.0120616789
 C         -3.5492486449        1.3438540783       -0.7244816196
 C         -4.7736113513        1.8248467929       -0.2586578350
 C         -5.4834158960        2.7527865615       -0.9952883971
 C         -4.9865654772        3.2239901800       -2.1996320174
 C         -3.7691574991        2.7536607661       -2.6646870533
 C         -3.0551703419        1.8204051842       -1.9394819891
 C         -3.5025720173       -0.5748365531        0.7671610614
 C         -4.6560716370       -1.1856048354        0.2815505002
 C         -5.3026256939       -2.1442990562        1.0367872151
 C         -4.8073366896       -2.5128701662        2.2768717405
 C         -3.6589449347       -1.9095008848        2.7616947760
 C         -3.0120874643       -0.9420226134        2.0184880989
 C         -0.7206973420       -0.8168804330       -0.0260413532
 N         -1.2181393217       -2.0534357917       -0.0646976952
 S         -0.0035903551       -3.1038488347       -0.0813147414
 N          1.2130425918       -2.0561850611       -0.0456629400
 C          0.7180063853       -0.8182194535       -0.0258956779
 C          3.0258789887       -0.8622906581       -2.0565701335
 C          3.6781032185       -1.7988847560       -2.8337595444
 H          5.3317531166       -3.1524026248       -2.9761385653
 H          6.1967704804       -2.5924345851       -0.7329204501
 H          5.0266780241       -0.9422216272        0.6680753913
 H          2.1031157546        1.3411632145        2.3682035293
 H          3.3618852877        2.9436856252        3.7382337922
 H          5.5314823721        3.8213687185        2.9488282328
 H          6.4266721692        3.0805192496        0.7694975172
 H          5.1610726587        1.4916042531       -0.6130158059
 H          1.2187330536        2.5104023724        0.0495348765
 H         -1.2162995922        2.5122173253        0.0553767258
 H         -5.1609330490        1.4660748392        0.6832315487
 H         -6.4288980734        3.1173536425       -0.6212083387
 H         -5.5436926538        3.9498706613       -2.7718113344
 H         -3.3758586976        3.1098406609       -3.6055942207
 H         -2.1135339696        1.4464462965       -2.3130027065
 H         -5.0344285657       -0.9084764461       -0.6911750078
 H         -6.1948317789       -2.6145781093        0.6500439547
 H         -5.3136598591       -3.2654002831        2.8622116782
 H         -3.2694412921       -2.1872890669        3.7302490234
 H         -2.1235758161       -0.4620106333        2.4030135272
 H          2.1407881350       -0.3658624104       -2.4278470863
 H          3.2950343057       -2.0379336887       -3.8151477367
