63
 energy: -96.485892294010 gnorm: 0.000042828567 xtb: 6.7.1 (edcfbbe)
C           -6.95782765459224       -0.58817918609404       -0.08806404151850
C           -5.79654634407312        0.41301676462045        0.05579961594060
C           -6.34414544364993        1.83818092252065        0.25712748791215
C           -4.97161950056130        0.38476142799230       -1.21576049007911
C           -5.56601209695525        0.71024707772313       -2.42692364748369
C           -4.86076076237194        0.69952148234462       -3.61625327233375
C           -3.52001221122349        0.35456544791740       -3.60780511529908
C           -2.90376701703962        0.02626112062391       -2.42019553283049
C           -3.61493430330497        0.03639046354221       -1.21472885850486
N           -2.96888595083622       -0.29808563405677       -0.04053467518673
C           -1.59376670075237       -0.66898164882574       -0.09048528386068
C           -1.24566013763641       -2.00251942659664       -0.26723162619478
C            0.08672388453257       -2.37100479549021       -0.31537244487573
C            1.09945502152285       -1.42227148824381       -0.18911616024341
N            2.39085114931973       -1.73895188568384       -0.22972817859853
C            3.35017292975406       -0.82929955536013       -0.10872613503735
C            4.72989386424335       -1.19779751082075       -0.15549791280709
C            5.06781128262431       -2.54984225126229       -0.33217995297630
C            6.37920903023709       -2.94429523072891       -0.38194494621512
C            7.39059873348321       -1.99167523182861       -0.25560749534671
C            7.07810215913775       -0.66478217309894       -0.08231705633712
C            5.74737808500329       -0.22438489514433       -0.02665336699324
C            5.38396754856481        1.16204307768872        0.15440957205753
C            6.33056936721115        2.18858824958110        0.28884443537427
C            5.95254358699446        3.49855735735920        0.46026811669853
C            4.60140478258895        3.84304375362922        0.50537211442843
C            3.64908993123216        2.86606266772735        0.37716471979316
C            4.01727432034787        1.52183783211917        0.20097372941212
C            2.99217273091187        0.53471999759879        0.07066185765611
N            1.70787471287621        0.86802499660139        0.11368235374829
C            0.73479746585434       -0.03259405581159       -0.00571140166687
C           -0.61336641931565        0.30714860637555        0.03894671878252
C           -3.61848363306179       -0.30176348207601        1.17851103158755
C           -2.91023555599844       -0.64353948169033        2.33635579606144
C           -3.53021913929991       -0.65762785955220        3.56654473376354
C           -4.87176410808514       -0.33048516430269        3.66602482746865
C           -5.57376758980386        0.00889277193736        2.52409182609193
C           -4.97555027808938        0.03224285298035        1.27199093960252
H           -7.58036322198676       -0.33958074450414       -0.94299878005739
H           -6.56459359752368       -1.59309437782789       -0.23007625896823
H           -7.58302112948136       -0.58699210160932        0.80041757354197
H           -5.51891254950249        2.54035248094041        0.35945047307813
H           -6.95635883132944        1.89548840928641        1.15274048663754
H           -6.95140312824530        2.14366603063977       -0.59029414958467
H           -6.61080727452867        0.98084402620856       -2.45011848617278
H           -5.35445060994931        0.95810230789232       -4.54048631086184
H           -2.95272872995545        0.34068768701425       -4.52627071401849
H           -1.85895841219167       -0.24254476910210       -2.41639996292751
H           -2.02150161355709       -2.74619399224300       -0.36593081842876
H            0.36935501619739       -3.40267505373735       -0.45184081920436
H            4.26331028122999       -3.26328083237797       -0.42670290207043
H            6.63159602997674       -3.98540417182249       -0.51790417776477
H            8.42532944620922       -2.29924754728660       -0.29423968294044
H            7.88405021385699        0.04545798946838        0.01206358971282
H            7.38326851448394        1.95668832774094        0.25843761285521
H            6.70575056622022        4.26624389144673        0.56070648089821
H            4.31098982447442        4.87431094507797        0.64048992384996
H            2.59612298096794        3.10146020284982        0.40777255511182
H           -0.88726905093181        1.34137958590064        0.17583153815732
H           -1.86464385141158       -0.89858733467134        2.26168912323488
H           -2.96514275275049       -0.92408953197926        4.44703822973299
H           -5.36841523354013       -0.33871711169153        4.62418225147668
H           -6.61900370905959        0.26182739152045        2.61817582988059
