  63
        -96.52798794
 C         -6.9011110191       -0.2535890406       -0.7253743659
 C         -5.7990973924        0.3429569261        0.1692756020
 C         -6.4190921510        1.2540964954        1.2444710421
 C         -4.8701106973        1.1715487599       -0.6972424159
 C         -5.3836936004        2.2515452575       -1.4026326662
 C         -4.5980464886        3.0277155612       -2.2335688898
 C         -3.2598379972        2.7128237036       -2.3832172964
 C         -2.7235471136        1.6460997566       -1.6935487844
 C         -3.5095395349        0.8753424266       -0.8320617893
 N         -2.9439051859       -0.1911929612       -0.1462706839
 C         -1.5722905509       -0.4960249776       -0.3340015075
 C         -1.2296823841       -1.6469343849       -1.0833802930
 C          0.0746989407       -1.9801837719       -1.2961264352
 C          1.1046738857       -1.1732753753       -0.7637194890
 N          2.3862812770       -1.5033164305       -0.9676968879
 C          3.3179043932       -0.7243629190       -0.4497055734
 C          4.7089076030       -1.0629930044       -0.6533128555
 C          5.0333399311       -2.2030998606       -1.3941014033
 C          6.3460954355       -2.5541130071       -1.6046820050
 C          7.3574473420       -1.7627297687       -1.0718382820
 C          7.0510841537       -0.6363407307       -0.3398194351
 C          5.7248120276       -0.2523388947       -0.1090408851
 C          5.3745638217        0.9347542523        0.6592864421
 C          6.3383976672        1.7796768824        1.2221714876
 C          5.9821236446        2.8980647373        1.9438666926
 C          4.6425329512        3.2183365963        2.1328094261
 C          3.6725261895        2.4071333337        1.5923674784
 C          4.0205726022        1.2697121832        0.8584177525
 C          2.9742234944        0.4387729488        0.3047706501
 N          1.7147460105        0.7751953962        0.5089313462
 C          0.7610560372       -0.0107737535       -0.0107160514
 C         -0.5964092715        0.3076281037        0.1948458213
 C         -3.6943089351       -1.0010907681        0.6939582034
 C         -3.0657271026       -2.0246642852        1.4099180767
 C         -3.7852168647       -2.8545329451        2.2434394816
 C         -5.1482497802       -2.6712356492        2.3884891740
 C         -5.7666532744       -1.6398738530        1.7066739406
 C         -5.0665034600       -0.7896639801        0.8616765267
 H         -7.4668982839        0.5306523451       -1.2205766863
 H         -6.4546131350       -0.8884418830       -1.4885759872
 H         -7.5921570646       -0.8546791563       -0.1408339537
 H         -5.6343863897        1.6672800621        1.8755179716
 H         -7.1085611962        0.6988787780        1.8743651497
 H         -6.9625806958        2.0776357107        0.7897251808
 H         -6.4305029112        2.4973982624       -1.3068844823
 H         -5.0297747445        3.8622305629       -2.7647346635
 H         -2.6293193517        3.2940757550       -3.0394016676
 H         -1.6810258766        1.4031429657       -1.8281759124
 H         -2.0289426022       -2.2524365071       -1.4852377230
 H          0.3528779272       -2.8509580882       -1.8689701993
 H          4.2219249677       -2.7922902384       -1.7916709571
 H          6.5919612225       -3.4355003379       -2.1779108064
 H          8.3917008110       -2.0308364978       -1.2315385565
 H          7.8628918118       -0.0478721061        0.0568906579
 H          7.3875520604        1.5648920683        1.0970484722
 H          6.7512761084        3.5291296982        2.3648433793
 H          4.3690425438        4.0960086969        2.6991062419
 H          2.6232012469        2.6232493380        1.7178076222
 H         -0.8430925318        1.1888976367        0.7666587265
 H         -1.9997916471       -2.1655203629        1.3172342469
 H         -3.2768344101       -3.6404234272        2.7818928685
 H         -5.7238337155       -3.3161610360        3.0347554835
 H         -6.8280775999       -1.4969071269        1.8422949166
