63
 energy: -96.528014184902 gnorm: 0.000072430716 xtb: 6.7.1 (edcfbbe)
C           -6.90759005668052       -0.22736196753145       -0.72268398197738
C           -5.79569538057772        0.35101629520078        0.17163979132787
C           -6.40110050076285        1.26472684525290        1.25293535985548
C           -4.85878987793936        1.17199894633361       -0.69345110276579
C           -5.36230107754628        2.25758858503293       -1.39767090866877
C           -4.56993041076426        3.02615143137159       -2.22914786368643
C           -3.23533688424457        2.69717876379603       -2.38121169192491
C           -2.70881311708531        1.62571197615276       -1.69156224389456
C           -3.50098792009406        0.86362299650406       -0.82784851969173
N           -2.94420520222859       -0.20670424104952       -0.14010499177393
C           -1.57255279408371       -0.51480970197154       -0.31990754807388
C           -1.22712102893114       -1.67118352445316       -1.05969858582257
C            0.07805584525032       -2.00299751702106       -1.26950399405648
C            1.10610124591838       -1.18862716369626       -0.74475218074153
N            2.38837678157959       -1.51449304175700       -0.95073281976804
C            3.31834251708130       -0.72762304662818       -0.44177639391293
C            4.71001836587599       -1.05976491849872       -0.65106123049452
C            5.03669281941478       -2.20220501157522       -1.38711244374861
C            6.35021697749512       -2.54618163310565       -1.60452649326332
C            7.36003758778572       -1.74464137514053       -1.08428748845005
C            7.05139251219988       -0.61588846983576       -0.35687238538803
C            5.72434842597426       -0.23974021508351       -0.11812778850165
C            5.37165349979785        0.94798890697922        0.64798024382670
C            6.33399589729697        1.79929243652759        1.20368296251187
C            5.97572611115601        2.91735333917652        1.92487025166633
C            4.63549175833905        3.23104773408095        2.12002324240240
C            3.66691301695502        2.41367822445235        1.58628462268495
C            4.01694548475035        1.27626873835173        0.85332133373594
C            2.97215221702904        0.43825290166914        0.30730538984523
N            1.71189337336169        0.77072687504918        0.51315929470959
C            0.75986218110475       -0.02197966691469        0.00059151552712
C           -0.59832111908271        0.29420136623528        0.20420255125422
C           -3.70415025751534       -1.01508665392600        0.69316174569785
C           -3.08669375137251       -2.04736343242785        1.40635088162080
C           -3.81625297768050       -2.87660582392857        2.23168830459559
C           -5.17848750572156       -2.68362390907403        2.37201764016591
C           -5.78557709295226       -1.64286502944141        1.69447116834113
C           -5.07518649573435       -0.79340261253073        0.85722515024559
H           -7.46325776233080        0.56613053023919       -1.21453723895275
H           -6.47145342148065       -0.86616247840809       -1.48856977857075
H           -7.60625805085938       -0.82022389430764       -0.13887187820507
H           -5.60932001573856        1.66633379712189        1.88259881908977
H           -7.09427788194766        0.71457730120064        1.88320259267295
H           -6.93678272465382        2.09622465138550        0.80343948560285
H           -6.40640264643222        2.51404259269999       -1.30033088454158
H           -4.99351166615302        3.86539101809049       -2.75938839027376
H           -2.60014955195433        3.27132337542955       -3.03914074492834
H           -1.66918346419797        1.37200937548051       -1.82833779536322
H           -2.02494051658208       -2.28080160086010       -1.45816660372125
H            0.35850474994402       -2.87709376975207       -1.83614754215601
H            4.22646940685008       -2.79922625303594       -1.77514532117042
H            6.59777656864947       -3.42977169712711       -2.17352533773188
H            8.39489693869636       -2.00665773066290       -1.25000094818167
H            7.86211302293726       -0.01960497811237        0.03007453374812
H            7.38357332276736        1.58936163172015        1.07388250690870
H            6.74381759603042        3.55316008518892        2.34063114204161
H            4.36038849095866        4.10849827365673        2.68583716472035
H            2.61720673885530        2.62458245010477        1.71688797029018
H           -0.84748442018960        1.17952292112293        0.76866068386683
H           -2.02138781437329       -2.19560282447812        1.31815728506909
H           -3.31641267613347       -3.66959577648178        2.76772748072229
H           -5.76189073280555       -3.32808682375875        3.01171472516388
H           -6.84613272266152       -1.49132557082784        1.82750611668769
