  92
       -158.21583404
 C         -4.3331008468       -6.1305134038        3.2757297993
 C         -3.1749869144       -5.3764131545        3.3090510141
 C         -2.8579634854       -4.5301139117        2.2598089101
 C         -3.6920791351       -4.4318459760        1.1506986548
 C         -4.8802755196       -5.1787133624        1.1406033309
 C         -5.1901156564       -6.0231053002        2.1917409086
 O         -5.7839599518       -5.1004342035        0.1142408843
 C         -5.4976140328       -4.2516712900       -0.9216434072
 C         -6.4266183432       -4.1710984532       -1.9437607137
 C         -6.1923566221       -3.3525109302       -3.0372378757
 C         -5.0168861516       -2.6288618618       -3.1087057271
 C         -4.0829685049       -2.7037788913       -2.0889982333
 C         -4.3134049215       -3.4990435444       -0.9707979883
 N         -3.4020790361       -3.5956173300        0.0767994675
 C         -2.1898604808       -2.8642431624        0.0496161568
 C         -0.9655336868       -3.5470270705       -0.0154834174
 C          0.1991911396       -2.8302860784       -0.0437931836
 C          0.1899385565       -1.4253889432       -0.0259249445
 C         -1.0425164109       -0.7282479374        0.0323504331
 C         -2.2196234259       -1.4866204496        0.0807362175
 C         -1.0423448103        0.7127147448        0.0333137707
 C         -2.2184817777        1.4726384486        0.0858912308
 C         -2.1862184769        2.8501954751        0.0567573614
 N         -3.3959757283        3.5853891275        0.0906411556
 C         -3.6721541826        4.4279470482        1.1631398156
 C         -2.8363581409        4.5136643789        2.2720490526
 C         -3.1385366375        5.3673875922        3.3196274005
 C         -4.2831788222        6.1417617409        3.2845413846
 C         -5.1424289919        6.0466427991        2.2011672379
 C         -4.8478382639        5.1942903187        1.1520179725
 O         -5.7532811170        5.1281241160        0.1263647419
 C         -5.4784028025        4.2769159862       -0.9106933803
 C         -6.4061361138        4.2136390204       -1.9351844410
 C         -6.1823547450        3.3940767547       -3.0300762478
 C         -5.0188091741        2.6513178128       -3.1003224676
 C         -4.0863391002        2.7085851985       -2.0781569815
 C         -4.3062895578        3.5055037062       -0.9590697990
 C         -0.9611739308        3.5314160297       -0.0118966048
 C          0.2023138690        2.8132106956       -0.0441724621
 C          0.1905374541        1.4083831396       -0.0266837592
 C          1.4318825902        0.7027874530       -0.0695406869
 N          2.5823015893        1.3625611023       -0.1047934843
 C          3.7466395032        0.7135970580       -0.1219097528
 C          4.9669860951        1.3842744792       -0.1562339173
 C          6.1752036373        0.6981874289       -0.1705960763
 C          7.4217212486        1.4561065963       -0.2698742497
 C          8.4289558102        1.1417311930       -1.1882223853
 N          9.5525601594        1.8273019312       -1.2720993175
 C          9.6914571244        2.8534368788       -0.4510923695
 N          8.8006031985        3.2712273015        0.4300880344
 C          7.6796098392        2.5799130755        0.5196172096
 C          6.1766430542       -0.7094286449       -0.1393568958
 C          7.4267570135       -1.4635967997       -0.0581837505
 C          8.4427517807       -1.1457349090        0.8494571963
 N          9.5694202911       -1.8273477258        0.9218137280
 C          9.7030247152       -2.8531313627        0.0993510284
 N          8.8042927003       -3.2737471996       -0.7722735573
 C          7.6797933806       -2.5864984987       -0.8501416724
 C          4.9697231633       -1.3982141221       -0.1264911179
 C          3.7474480522       -0.7299981535       -0.1174552650
 N          2.5833169261       -1.3800017136       -0.1002991184
 C          1.4321727811       -0.7208851099       -0.0679759940
 H         -4.5797118692       -6.7931758130        4.0898717062
 H         -2.5091428222       -5.4385328666        4.1556238447
 H         -1.9584836409       -3.9365175822        2.3017579208
 H         -6.1094537560       -6.5842690958        2.1426911429
 H         -7.3248523558       -4.7622846353       -1.8647347476
 H         -6.9227550965       -3.2930147018       -3.8283857799
 H         -4.8150862670       -2.0012692615       -3.9627284206
 H         -3.1625006677       -2.1471186316       -2.1640554386
 H         -0.9590730355       -4.6259902240       -0.0475103861
 H          1.1574766130       -3.3235032659       -0.0935543848
 H         -3.1821706836       -1.0031428977        0.1411552131
 H         -3.1815936160        0.9907311940        0.1495232765
 H         -1.9476507628        3.9041872126        2.3150624076
 H         -2.4714596197        5.4198685335        4.1659237128
 H         -4.5176505425        6.8109285808        4.0969532778
 H         -6.0517416144        6.6236764379        2.1512007691
 H         -7.2943089296        4.8198829985       -1.8575522964
 H         -6.9113128494        3.3487604751       -3.8233652804
 H         -4.8252239086        2.0223416492       -3.9553430781
 H         -3.1743220861        2.1380005739       -2.1525563016
 H         -0.9535492121        4.6103856473       -0.0428946688
 H          1.1612995678        3.3047966862       -0.0962479359
 H          4.9536568025        2.4626268799       -0.1967534523
 H          8.3159695894        0.3240387380       -1.8898791874
 H         10.6172263655        3.4092980893       -0.5142415583
 H          6.9641722479        2.9213040085        1.2578444313
 H          8.3338714270       -0.3286157185        1.5524453459
 H         10.6315281113       -3.4055990645        0.1525852501
 H          6.9572503070       -2.9312984962       -1.5797815534
 H          4.9602928726       -2.4766802183       -0.0864043426
