60
 energy: -95.638252205727 gnorm: 0.000058002386 xtb: 6.7.1 (edcfbbe)
C            2.35180702639519        2.92964056376217        0.81374425401878
C            3.49949603377881        1.98187301438345        0.95947735857396
C            4.69519639758778        2.43349726737756        1.50743689928079
C            5.79022931183493        1.60499727657124        1.70941596316789
C            5.72409920351865        0.25600357608955        1.40130409048838
C            4.55049019463045       -0.23131670473421        0.85549981285520
C            4.14001734208606       -1.55346026636877        0.46596160767496
C            4.76041356308949       -2.79196174019098        0.47561035652542
C            4.06001716720292       -3.88673026975538       -0.00249138652068
C            2.76548824916641       -3.75249880876812       -0.49922820016145
C            2.12854875423397       -2.52650326001009       -0.51841617907196
C            2.81817181726300       -1.42962950360102       -0.01971064297315
N            2.42237311701892       -0.11151732966098        0.05564750324640
C            1.20552629481690        0.36150894804894       -0.44488961650682
C           -0.00107538929839       -0.11171994036434        0.03889111724792
C           -1.20690603611618        0.36082971010928       -0.44794157156650
N           -2.42434997022948       -0.11070628674506        0.05234089097173
C           -2.81792925920839       -1.42985743332101       -0.01564573046601
C           -2.12745566720106       -2.52797901390726       -0.51050226556347
C           -2.76201556332986       -3.75504003467860       -0.48357814492109
C           -4.05507803616531       -3.88922766582153        0.01704127374241
C           -4.75650743514574       -2.79332827777763        0.49097515826402
C           -4.13854561513432       -1.55368943817421        0.47335642841852
C           -4.55071635388163       -0.23034792297770        0.85682475419731
C           -5.72424587661113        0.25720614470547        1.40260066437043
C           -5.79268061083448        1.60758295871665        1.70398990629384
C           -4.69985985317683        2.43731180711673        1.49533870265325
C           -3.50423841303926        1.98548540566499        0.94727503042954
C           -2.35946325381417        2.93559119604598        0.79417518011518
C           -3.45583343328576        0.63327022510602        0.59114376212631
C           -1.21043421057970        1.27330145802910       -1.59066605720779
C           -2.41693910385273        1.65590435415192       -2.16750146690329
N           -3.42528986386093        1.98544141394256       -2.62641531876906
C            0.00109500307998        1.68193682281938       -2.12903604215616
C            1.21151780599678        1.27613367805119       -1.58592011146227
C            2.41938342603904        1.66342009133256       -2.15668587417439
N            3.42893052855022        1.99685849825633       -2.61014615070340
C            3.45345872930365        0.63147375996792        0.59635214739275
H            1.39893426247875        2.42344029317410        0.95676866981873
H            2.35434931849610        3.37536105001467       -0.18117191166375
H            2.43806873172566        3.73372583244364        1.54137023138172
H            4.76732188827705        3.47354620084507        1.78943128712834
H            6.69553841155461        2.01712301762412        2.12846825208825
H            6.56004186250557       -0.40073283267471        1.58479109591173
H            5.76972006174132       -2.89798906276979        0.84247194134072
H            4.52542131668871       -4.86075208472389       -0.00109303474664
H            2.25179229240399       -4.62212576809426       -0.88033231641140
H            1.13248004140812       -2.42325109049369       -0.91976266601309
H           -0.00187120890056       -0.80623912093155        0.86843292202976
H           -1.13257693338136       -2.42493221148184       -0.91482833930519
H           -2.24758332456939       -4.62561335472877       -0.86151085341846
H           -4.51853064175052       -4.86414889443679        0.02469994615046
H           -5.76474975552037       -2.89937693680925        0.86074655974596
H           -6.55830933585917       -0.40045204384152        1.59125991416195
H           -6.69796133710992        2.01992243728766        2.12289123357768
H           -4.77367928885486        3.47868544208158        1.77195797053938
H           -2.36475020667543        3.37524397233577       -0.20343080958582
H           -2.44706238874171        3.74387776354143        1.51697077344590
H           -1.40486485091849        2.43314255743869        0.93890188202533
H            0.00204480014326        2.33038960398726       -2.99441788644098
