60
 energy: -95.722467324718 gnorm: 0.000093125774 xtb: 6.7.1 (edcfbbe)
C            2.78979075604499        2.48125585185091       -1.08829458410324
C            3.79239199467589        1.52611542325791       -0.51218945327509
C            5.11387330996638        1.92430429344887       -0.35952548053068
C            6.07710204650069        1.12072835001434        0.23776889674711
C            5.74342525778694       -0.11623195524960        0.74993081334885
C            4.43505980101019       -0.55246024582383        0.60502588529288
C            3.75536537977697       -1.73737445380121        1.05278184122931
C            4.16788459113508       -2.86700779443183        1.74582931987497
C            3.24118262721520       -3.85694444425520        2.00790886760287
C            1.92391890641315       -3.73704456661122        1.57490292628601
C            1.49153106853864       -2.62181671750579        0.88061653550218
C            2.41357791358041       -1.61639021353836        0.63831003241749
N            2.25561061839171       -0.41911864487734       -0.04807926164374
C            1.12969581866711       -0.12437826551734       -0.80890923783357
C           -0.12160736467154       -0.06193579949421       -0.20786679450149
C           -1.26414494781655        0.20563399515747       -0.95235870821247
N           -2.51068182913191        0.24991694829476       -0.33551333807180
C           -3.53642518888647       -0.63864029146308       -0.62776776852677
C           -3.59984258824031       -1.62214651052807       -1.60175041572261
C           -4.74122397552585       -2.40011516199915       -1.65519781486965
C           -5.78708779856137       -2.21858627968078       -0.75461779601822
C           -5.71260056641065       -1.26049761091207        0.23668045412712
C           -4.57694642572052       -0.46517262482424        0.30661913468563
C           -4.16234155127160        0.58501835187313        1.19556039648833
C           -4.78497917670355        1.19164421634405        2.27652925454847
C           -4.12836430303539        2.22631509038969        2.91029493102586
C           -2.89771960853047        2.67479834673539        2.44555096947731
C           -2.24905817768105        2.10057971436478        1.36020952265409
C           -0.96585263610661        2.69611556308359        0.86089635813383
C           -2.88242216534724        1.00761403369428        0.76832029132309
C           -1.15148282964498        0.39381745971518       -2.34510498498953
C           -2.28848335025838        0.72234385000719       -3.11832390489650
N           -3.19522941813407        1.01667219780518       -3.75431098372273
C            0.09255293425672        0.30447228818010       -2.95939635135544
C            1.23058349756302        0.04017524363530       -2.20676327124067
C            2.47266118193831       -0.12629884303078       -2.86095910290291
N            3.46366590411016       -0.29010232553932       -3.41326468022506
C            3.47977014938563        0.24241177899510       -0.06714898234195
H            1.81919349403129        2.37550730378034       -0.60591663023414
H            2.66148123965807        2.31949919074001       -2.15942016608604
H            3.13446210294246        3.50340622816225       -0.94784068842864
H            5.39639370619001        2.90646625663079       -0.70954074331926
H            7.08932499051019        1.48570454594103        0.32341236203106
H            6.47210567938015       -0.72867173804342        1.25755662232950
H            5.19360854244587       -2.96693759414523        2.06574673933036
H            3.54019750167654       -4.74254104097049        2.54803220255881
H            1.22332814733999       -4.53227329982929        1.78136485133216
H            0.47042107647136       -2.55178828399692        0.53572401271381
H           -0.21053049201762       -0.21868504284457        0.85672597600746
H           -2.79296812310884       -1.78596668578113       -2.30056059352520
H           -4.82010677232814       -3.16620043783467       -2.41165164331787
H           -6.66353017094855       -2.84414629391455       -0.83141435592964
H           -6.51513530667773       -1.13052510371626        0.94643754838408
H           -5.76081230104714        0.86492416726146        2.60001849847056
H           -4.58177654120314        2.71553852749421        3.75900183071813
H           -2.43014651022599        3.51643216958494        2.93591659670171
H           -0.09957785008029        2.13312995567934        1.21111657283892
H           -0.94453984806276        2.71756066140112       -0.22798363789474
H           -0.86833221457755        3.71619229689203        1.22557611306846
H            0.17379079434804        0.43570396972586       -4.02869698354088
