55
 energy: -91.102047136079 gnorm: 0.000049353949 xtb: 6.7.1 (edcfbbe)
C           -5.16299212960892        3.14289565382594       -2.03998902553786
C           -3.78487953965222        3.15913893964558       -2.10807690410182
C           -3.03598121921196        2.23934837392291       -1.38973488462044
C           -3.65491056373916        1.29476236530311       -0.58063518726393
C           -5.05544432070245        1.26453081805275       -0.54631935227834
C           -5.79727994391729        2.18467907945228       -1.26293719584411
O           -5.75443596851777        0.32690551012126        0.17273888732886
C           -5.02845021737384       -0.60108620712491        0.87715471050385
C           -5.74491231384629       -1.53848972628339        1.59737429834197
C           -5.08484772257331       -2.48978900043158        2.36124085015505
C           -3.70598252203039       -2.48220729862062        2.41174210454428
C           -2.98236185023878       -1.54550603019655        1.68928904181882
C           -3.62691180154836       -0.60594236980674        0.89419313510750
N           -2.93070940792491        0.35275884406766        0.15383000833426
C           -1.52043253658604        0.38271505435452        0.16144442573941
C           -0.84590194638917        1.49592268656542        0.67015823724765
C            0.52675295745270        1.50692862815250        0.67156535069318
C            1.25721073224088        0.41946839594274        0.18181264508494
C            0.59019662523549       -0.71314095160583       -0.32659118659822
C           -0.80664918174510       -0.69625942592926       -0.33177790386742
C            1.35669297884017       -1.84593050379031       -0.82767727786772
C            0.74963665269582       -3.00406863014024       -1.32690079236213
C            1.49754870523293       -4.06200210117083       -1.79596545567799
C            2.88642771160604       -4.00355210462729       -1.78353316583519
C            3.51081801324655       -2.88020433460121       -1.29372001029899
C            2.76460644520274       -1.80065163001698       -0.81360960321053
C            3.45378439364342       -0.63774600858503       -0.29684270664257
N            4.77269944226607       -0.62407047509861       -0.29425092427466
C            5.39098135762620        0.46138567348865        0.19288766023480
C            6.80086862836445        0.51762839912277        0.21662786156415
C            7.42759802861254        1.62426038983983        0.71334810545363
C            6.68532650855200        2.71574234489565        1.20426846972489
C            5.32028442218424        2.69515384104198        1.19626811011648
C            4.63866747728558        1.56726791658609        0.69078324533059
N            3.29852668009759        1.54354685816037        0.68210460132918
C            2.70101145673180        0.46868317940619        0.20224156158357
H           -5.75002630945786        3.85898280019045       -2.59301983598039
H           -3.27676099206217        3.88521977246842       -2.72388164603833
H           -1.95999476622168        2.25286791519730       -1.46556104158158
H           -6.87255712461980        2.13081480451590       -1.20323928105764
H           -6.82162485203631       -1.50252576579818        1.55155099944049
H           -5.65234017035505       -3.21889753286462        2.91762261001092
H           -3.17709560530350       -3.20254928189067        3.01679056685715
H           -1.90554868835222       -1.54097745340115        1.75393670516587
H           -1.40993462977677        2.32970248956120        1.06045041314358
H            1.07800118122849        2.34914876618970        1.05869803256551
H           -1.36668600070038       -1.52861072760038       -0.72734622763316
H           -0.32511488404210       -3.08792432285235       -1.35008409845360
H            0.99846448662550       -4.94189296188667       -2.17485168977701
H            3.46749717281210       -4.83485017192911       -2.15363958370891
H            4.58608938653412       -2.80063522759221       -1.26485531841026
H            7.35107780013854       -0.32897346258133       -0.16393379693235
H            8.50649139666265        1.67270943142561        0.73442677708135
H            7.21223493971695        3.57609503614221        1.59029606788949
H            4.73349914345397        3.52087661315533        1.56798429933567
