55
 energy: -91.060040988123 gnorm: 0.000152566216 xtb: 6.7.1 (edcfbbe)
C           -5.12322724359968        2.98077006800494       -2.25804314869754
C           -3.74270352498182        2.97923520190973       -2.31496571836562
C           -3.00873832221421        2.10981554774133       -1.52469328395215
C           -3.64685494098222        1.23167454791218       -0.65547973140849
C           -5.04962486949166        1.22358766048143       -0.62332090273003
C           -5.77595885365616        2.09484554696065       -1.41427726039866
O           -5.75851378440089        0.35938227223611        0.17058418463193
C           -5.04681038665714       -0.51432358279538        0.95162861546065
C           -5.77219002417034       -1.38151051425696        1.74807635914306
C           -5.11870927697840       -2.27720854996496        2.58068002287716
C           -3.73764699230011       -2.29025958580603        2.61980757851352
C           -3.00463048825738       -1.42557008937712        1.82350718500294
C           -3.64362247166446       -0.53575451944134        0.96684155294626
N           -2.94060845511916        0.34661337560574        0.15248209073297
C           -1.52331575428262        0.36161995908570        0.15891908442539
C           -0.84286664542509        1.47286495724447        0.67736054377498
C            0.52482242957855        1.47795584539594        0.67984641692975
C            1.25680421705265        0.38575335820148        0.18126215213672
C            0.57721752930468       -0.74266022226722       -0.33963025904526
C           -0.82343384121998       -0.71542257307308       -0.34074628999249
C            1.33794254468313       -1.85764714768418       -0.84842248583459
C            0.74156802472050       -3.01717685689688       -1.36760497879913
C            1.49589691594772       -4.05959643537305       -1.84816961572236
C            2.88971256092404       -3.98918158842670       -1.83094233072896
C            3.50528615397190       -2.87358507136243       -1.32679851015449
C            2.75115522964474       -1.79805684823844       -0.82932673273315
C            3.43448613256189       -0.65681318957738       -0.30482539110084
N            4.75676039102178       -0.59751284914441       -0.28280821251342
C            5.41738654606789        0.45541470923989        0.20165675595649
C            6.80709517739527        0.52533443294782        0.23109180902576
C            7.45193633848249        1.63736178085930        0.74235308247993
C            6.71937801989326        2.70606574289142        1.23717874748435
C            5.33679566814942        2.67131197660433        1.22591732148243
C            4.65295118819938        1.56881695094926        0.71979831321046
N            3.32249760241670        1.49248278500071        0.69533386421659
C            2.68184764262099        0.43796903912302        0.20705144529711
H           -5.69698162718197        3.65850612138046       -2.87000357150494
H           -3.22409961885201        3.65378562887226       -2.97849305609089
H           -1.93182011475744        2.10706325115312       -1.58449393875847
H           -6.85213164718887        2.06106973753571       -1.35740367210131
H           -6.84856454277716       -1.33599511399589        1.70456076950050
H           -5.69183656982468       -2.95122221829683        3.19731136015687
H           -3.21746761188439       -2.97302383709253        3.27365827099115
H           -1.92709960258833       -1.43519720113232        1.87036884038334
H           -1.40614996906364        2.30648163620717        1.06892696490437
H            1.07814763160943        2.31744080616571        1.07182648586741
H           -1.38726561221094       -1.54529168987965       -0.73690722180196
H           -0.33308935050070       -3.10498636231995       -1.39411789913074
H            1.00786137807458       -4.93912554619064       -2.24170704576036
H            3.47641493627305       -4.81168732412182       -2.21185328454648
H            4.58108968725390       -2.79153531091413       -1.29726476251474
H            7.36558079246321       -0.31246442407136       -0.15676871201257
H            8.53078865809856        1.66946471387123        0.75396547969053
H            7.22722161405346        3.57181736821846        1.63442589175696
H            4.75629562308857        3.49701534850420        1.60742375765930
