55
 energy: -91.060041881520 gnorm: 0.000083733508 xtb: 6.7.1 (edcfbbe)
C           -5.13403632449218        3.05202143101961       -2.13703665678795
C           -3.75359256658330        3.05532939579807       -2.19592021214031
C           -3.01676967178991        2.15826196257247       -1.43997258029378
C           -3.65173324048763        1.24678378313949       -0.60331666975674
C           -5.05446533553779        1.23392832487174       -0.57061477909850
C           -5.78370897907511        2.13307031845876       -1.32697033648848
O           -5.76065120740018        0.33784496661021        0.18950591175504
C           -5.04632552919749       -0.56430104624567        0.93486563851222
C           -5.76929946156845       -1.46510512785335        1.69542643813476
C           -5.11342091921973       -2.39081492217713        2.49249665324748
C           -3.73236748757028       -2.39985490162566        2.53311000368458
C           -3.00180632846370       -1.50175741675705        1.77236258757143
C           -3.64306775610834       -0.58164642204979        0.95000825482601
N           -2.94256276956485        0.33399641327203        0.17074698665708
C           -1.52555744682442        0.35220166158321        0.17692202696681
C           -0.84725067871113        1.44960133808022        0.72683689860213
C            0.52041948880765        1.45858721438396        0.72732888987518
C            1.25466814132736        0.38292727396492        0.19721721499180
C            0.57741651260577       -0.73280165108667       -0.35310793286499
C           -0.82321901910059       -0.70850799002672       -0.35358086842018
C            1.34046619287450       -1.83281295315302       -0.89031790862648
C            0.74638755797551       -2.98129459162527       -1.43592408320464
C            1.50279020202995       -4.01042127453759       -1.94130700195507
C            2.89642391125973       -3.93699250967529       -1.92361580820862
C            3.50979642584428       -2.83173442005999       -1.39456256206363
C            2.75355887331398       -1.76994965165689       -0.87148726238115
C            3.43450157259527       -0.63932996351723       -0.32137372035777
N            4.75669167765715       -0.57527661744234       -0.30294874376131
C            5.41487590893544        0.46840348056353        0.20430117458648
C            6.80441440723349        0.54427482367652        0.22854113524680
C            7.44670958410863        1.64649306017431        0.76369806917244
C            6.71180984405423        2.69914046543377        1.28858209376922
C            5.32936695796328        2.65798831062658        1.28352363416173
C            4.64806378839790        1.56515346497900        0.75355711500208
N            3.31783380108267        1.48364042567210        0.73321172798333
C            2.67963135433522        0.43926630091386        0.22050954412631
H           -5.71004776566978        3.75146941590591       -2.72184544671625
H           -3.23720099100322        3.75547467162760       -2.83418275791433
H           -1.93997324460828        2.16003502747085       -1.50172712832046
H           -6.85973926074280        2.09458437764258       -1.27032914822973
H           -6.84578626566748       -1.42169096485733        1.65264505276700
H           -5.68467410089034       -3.09109463063692        3.08095211219429
H           -3.21019112438698       -3.10572566199545        3.16028748847732
H           -1.92434853447113       -1.50910713243021        1.82080411601097
H           -1.41210766073346        2.26988492386235        1.14350512817200
H            1.07192978428803        2.28824294441748        1.14211872024212
H           -1.38519746498317       -1.52773533093310       -0.77378476297269
H           -0.32807804790547       -3.07133702112577       -1.46303451323729
H            1.01649415566198       -4.88185474687508       -2.35451402184121
H            3.48477895734454       -4.74911156230994       -2.32379397318759
H            4.58543627547856       -2.74781264174418       -1.36423248114879
H            7.36487054198522       -0.28094776346847       -0.18273756233962
H            8.52544567938056        1.68355580385132        0.77040761720821
H            7.21766175763331        3.55727158561772        1.70446088864620
H            4.74695282467828        3.47123876196532        1.68816241741658
