55
 energy: -91.100876129261 gnorm: 0.000029956882 xtb: 6.7.1 (edcfbbe)
C           -5.10982421144950       -0.51733586243268        3.57132770842572
C           -3.73082297153667       -0.51138650416953        3.60485554776363
C           -3.00166984257745       -0.48701346433397        2.42468800728310
C           -3.64796019027122       -0.46843672094338        1.19653836274506
C           -5.04929199764745       -0.47423398178687        1.17045041773719
C           -5.76888633696966       -0.49878820295979        2.34893454753575
O           -5.76243121421787       -0.45530744054269       -0.00501050389894
C           -5.04885295870169       -0.44059744022754       -1.18026597047171
C           -5.76802619995573       -0.43205733048931       -2.35923243004225
C           -5.10853177974269       -0.41628010077935       -3.58143061435317
C           -3.72951745066852       -0.40962657948398       -3.61428832996855
C           -3.00078254918665       -0.41841124929048       -2.43364019122850
C           -3.64750671608239       -0.43385354867771       -1.20567560890475
N           -2.94575071931613       -0.43973999933534       -0.00427255620931
C           -1.52604878366927       -0.45547791719776       -0.00411954751388
C           -0.84459089751469       -1.67223290124258       -0.01454273793432
C            0.52945170500198       -1.66807638540883       -0.01457643838123
C            1.24366872772281       -0.46642979734430       -0.00385270148621
C            0.56561063625080        0.76860773965325        0.00740611182423
C           -0.83267192141659        0.73919939568716        0.00657285194102
C            1.31935241283473        2.01471559826449        0.01986635052388
C            0.69880405222935        3.26922933353918        0.03250871464325
C            1.43455941460097        4.43417547080028        0.04467968567474
C            2.82409720692896        4.39032105415134        0.04463578479481
C            3.46160915074542        3.17166707188634        0.03230687963209
C            2.72775070781246        1.98248509731142        0.01994155180394
C            3.42966152609372        0.71725331944727        0.00727979781474
N            4.74904801378409        0.71666952397730        0.00694775960661
C            5.37911175856736       -0.46615432190587       -0.00502007843813
C            6.78985528260563       -0.51314977183348       -0.00596081637800
C            7.42821362423645       -1.71976815169914       -0.01833267340800
C            6.69789911766551       -2.92416976775549       -0.03021471870078
C            5.33282119588801       -2.91595910912972       -0.02960421492033
C            4.63915494112834       -1.68670632611388       -0.01696300202765
N            3.29891724761241       -1.67428258505915       -0.01629188311358
C            2.69000269658327       -0.50392693676737       -0.00452624726752
H           -5.68144990556670       -0.53628238750235        4.48583299608880
H           -3.20701633627780       -0.52561783563603        4.54836220856287
H           -1.92264229009958       -0.48276180104050        2.45478159900985
H           -6.84570867058120       -0.50303644290876        2.29237013125832
H           -6.84486807718347       -0.43805856933739       -2.30318889615306
H           -5.67983389729523       -0.40960770095969       -4.49631065744685
H           -3.20537629929059       -0.39773432654081       -4.55764262972210
H           -1.92174023399423       -0.41397168208597       -2.46322633390098
H           -1.40246775722401       -2.59634781049352       -0.02259085371343
H            1.09247406225046       -2.58787632127196       -0.02290864341177
H           -1.40746024395893        1.65150221078519        0.01438030283741
H           -0.37675692669355        3.34352507241418        0.03297107647786
H            0.92550529859329        5.38679663700972        0.05432641601668
H            3.39550394769022        5.30628198566879        0.05432331885424
H            4.53771573406011        3.09867441299093        0.03196867703998
H            7.33072616543895        0.42042766303117        0.00322078617886
H            8.50753909238045       -1.76201660856341       -0.01923161450500
H            7.23436773279358       -3.86162723466542       -0.03996299316475
H            4.75506392759878       -3.82719146868455       -0.03858970540116
