  78
       -124.52052023
 N         -2.0625403602        6.7092030284       -0.7695252924
 C         -2.3798430104        5.6136756650       -0.6508419355
 C         -2.7873253208        4.2686538353       -0.5032051201
 C         -2.3969145810        3.3152464289       -1.4453874371
 C         -2.7930859390        2.0024207500       -1.2978525588
 C         -3.5807109517        1.6308525462       -0.2099553361
 N         -3.9466670699        0.2874737974       -0.0457030126
 C         -3.0597888967       -0.7612975600        0.1135162341
 C         -1.6123617565       -0.6384787273        0.1283426938
 C         -0.8637127061       -1.6899455441       -0.4032125540
 C          0.5129873742       -1.6409502154       -0.4048342707
 C          1.1891674353       -0.5420599364        0.1255499037
 C          2.6560411414       -0.4887320047        0.1162505218
 C          3.3274692172        0.6990744827       -0.1692690009
 C          4.7063941116        0.7459238277       -0.1962047146
 C          5.4514595171       -0.3975100593        0.0813131219
 N          6.8499497964       -0.3564403655        0.0553739627
 C          7.6698003571       -1.2436657010       -0.6154391060
 C          7.3343785424       -2.3125053271       -1.4342550721
 C          8.3636181423       -3.0296087074       -2.0139464294
 C          9.6978168423       -2.6930754280       -1.7962991510
 C         10.0372416043       -1.6154181312       -1.0029218691
 C          9.0200315306       -0.8788504657       -0.4101770494
 C          9.0052150039        0.2845561989        0.4316806522
 C         10.0039566896        1.0770006884        0.9819793871
 C          9.6387924819        2.1366044973        1.7883405256
 C          8.2981243687        2.4006528339        2.0598892420
 C          7.2867825960        1.6267644697        1.5235615065
 C          7.6463929997        0.5753527196        0.6923435089
 C          4.7891944622       -1.5854178368        0.3827238424
 C          3.4104552293       -1.6287989526        0.3901791476
 C          0.4386393360        0.4959885008        0.6746040748
 C         -0.9406626811        0.4490201906        0.6845430243
 N         -3.6770206093       -1.9027294503        0.2713079414
 C         -5.0062321291       -1.6263846143        0.2236710899
 C         -6.0898992412       -2.5341421994        0.3825844243
 C         -5.8658590029       -3.8934391519        0.6239289834
 C         -6.9246415708       -4.7471498607        0.8064700698
 C         -8.2241618038       -4.2464799511        0.7538335661
 C         -8.4554111928       -2.9126117500        0.5120019867
 C         -7.4002064407       -2.0095739131        0.3102223745
 C         -7.6099597225       -0.6036023830        0.0114220182
 C         -8.8975217371       -0.0705283930       -0.1436320862
 C         -9.1077887570        1.2454493381       -0.4815135314
 C         -8.0251665096        2.0905362001       -0.7032143618
 C         -6.7478859410        1.6113492990       -0.5492220835
 C         -6.5114093485        0.2823643369       -0.1683429935
 C         -5.2099790378       -0.2640895742        0.0157881809
 C         -3.9689125131        2.5830760665        0.7332938967
 C         -3.5773879288        3.8969493305        0.5872934174
 H         -1.7885946796        3.6118879644       -2.2867339457
 H         -2.4955983366        1.2552203642       -2.0182999692
 H         -1.3879532398       -2.5387034851       -0.8137662463
 H          1.0758655170       -2.4527136230       -0.8412130492
 H          2.7613484887        1.5884236323       -0.4048661736
 H          5.2153714523        1.6635301147       -0.4511648343
 H          6.3035567014       -2.5704048631       -1.6253433223
 H          8.1278132293       -3.8675073133       -2.6537675443
 H         10.4732090530       -3.2806804280       -2.2644855669
 H         11.0702786447       -1.3434029798       -0.8474845513
 H         11.0430712007        0.8611807280        0.7846452246
 H         10.3993346232        2.7672736647        2.2238457465
 H          8.0432264229        3.2267676988        2.7074031350
 H          6.2520485081        1.8288541912        1.7561574442
 H          5.3634149467       -2.4671329383        0.6258065882
 H          2.9089673703       -2.5514421479        0.6425748731
 H          0.9432823871        1.3373811880        1.1267995447
 H         -1.4913153709        1.2494178250        1.1561950527
 H         -4.8438759384       -4.2364992728        0.6668569806
 H         -6.7576428967       -5.7972373800        0.9941987919
 H         -9.0606884613       -4.9134228590        0.9034867719
 H         -9.4780370460       -2.5717209550        0.4824099762
 H         -9.7589755639       -0.7036172224       -0.0063245762
 H        -10.1147046744        1.6196519461       -0.5914233847
 H         -8.1866629542        3.1165896147       -0.9992776378
 H         -5.9130111161        2.2655033318       -0.7456997759
 H         -4.5769546820        2.2811061888        1.5733359812
 H         -3.8731229948        4.6399166972        1.3128701623
