  78
  -124.520520230000       0.449140130959386      !
 N         -2.0625403602        6.7092030284       -0.7695252924
 C         -2.3798430104        5.6136756650       -0.6508419355
 C         -2.7873253208        4.2686538353       -0.5032051201
 C         -2.3969145810        3.3152464289       -1.4453874371
 C         -2.7930859390        2.0024207500       -1.2978525588
 C         -3.5807109517        1.6308525462       -0.2099553361
 N         -3.9466670699        0.2874737974       -0.0457030126
 C         -3.0597888967       -0.7612975600        0.1135162341
 C         -1.6123617565       -0.6384787273        0.1283426938
 C         -0.8637127061       -1.6899455441       -0.4032125540
 C          0.5129873742       -1.6409502154       -0.4048342707
 C          1.1891674353       -0.5420599364        0.1255499037
 C          2.6560411414       -0.4887320047        0.1162505218
 C          3.3274692172        0.6990744827       -0.1692690009
 C          4.7063941116        0.7459238277       -0.1962047146
 C          5.4514595171       -0.3975100593        0.0813131219
 N          6.8499497964       -0.3564403655        0.0553739627
 C          7.6698003571       -1.2436657010       -0.6154391060
 C          7.3343785424       -2.3125053271       -1.4342550721
 C          8.3636181423       -3.0296087074       -2.0139464294
 C          9.6978168423       -2.6930754280       -1.7962991510
 C         10.0372416043       -1.6154181312       -1.0029218691
 C          9.0200315306       -0.8788504657       -0.4101770494
 C          9.0052150039        0.2845561989        0.4316806522
 C         10.0039566896        1.0770006884        0.9819793871
 C          9.6387924819        2.1366044973        1.7883405256
 C          8.2981243687        2.4006528339        2.0598892420
 C          7.2867825960        1.6267644697        1.5235615065
 C          7.6463929997        0.5753527196        0.6923435089
 C          4.7891944622       -1.5854178368        0.3827238424
 C          3.4104552293       -1.6287989526        0.3901791476
 C          0.4386393360        0.4959885008        0.6746040748
 C         -0.9406626811        0.4490201906        0.6845430243
 N         -3.6770206093       -1.9027294503        0.2713079414
 C         -5.0062321291       -1.6263846143        0.2236710899
 C         -6.0898992412       -2.5341421994        0.3825844243
 C         -5.8658590029       -3.8934391519        0.6239289834
 C         -6.9246415708       -4.7471498607        0.8064700698
 C         -8.2241618038       -4.2464799511        0.7538335661
 C         -8.4554111928       -2.9126117500        0.5120019867
 C         -7.4002064407       -2.0095739131        0.3102223745
 C         -7.6099597225       -0.6036023830        0.0114220182
 C         -8.8975217371       -0.0705283930       -0.1436320862
 C         -9.1077887570        1.2454493381       -0.4815135314
 C         -8.0251665096        2.0905362001       -0.7032143618
 C         -6.7478859410        1.6113492990       -0.5492220835
 C         -6.5114093485        0.2823643369       -0.1683429935
 C         -5.2099790378       -0.2640895742        0.0157881809
 C         -3.9689125131        2.5830760665        0.7332938967
 C         -3.5773879288        3.8969493305        0.5872934174
 H         -1.7885946796        3.6118879644       -2.2867339457
 H         -2.4955983366        1.2552203642       -2.0182999692
 H         -1.3879532398       -2.5387034851       -0.8137662463
 H          1.0758655170       -2.4527136230       -0.8412130492
 H          2.7613484887        1.5884236323       -0.4048661736
 H          5.2153714523        1.6635301147       -0.4511648343
 H          6.3035567014       -2.5704048631       -1.6253433223
 H          8.1278132293       -3.8675073133       -2.6537675443
 H         10.4732090530       -3.2806804280       -2.2644855669
 H         11.0702786447       -1.3434029798       -0.8474845513
 H         11.0430712007        0.8611807280        0.7846452246
 H         10.3993346232        2.7672736647        2.2238457465
 H          8.0432264229        3.2267676988        2.7074031350
 H          6.2520485081        1.8288541912        1.7561574442
 H          5.3634149467       -2.4671329383        0.6258065882
 H          2.9089673703       -2.5514421479        0.6425748731
 H          0.9432823871        1.3373811880        1.1267995447
 H         -1.4913153709        1.2494178250        1.1561950527
 H         -4.8438759384       -4.2364992728        0.6668569806
 H         -6.7576428967       -5.7972373800        0.9941987919
 H         -9.0606884613       -4.9134228590        0.9034867719
 H         -9.4780370460       -2.5717209550        0.4824099762
 H         -9.7589755639       -0.7036172224       -0.0063245762
 H        -10.1147046744        1.6196519461       -0.5914233847
 H         -8.1866629542        3.1165896147       -0.9992776378
 H         -5.9130111161        2.2655033318       -0.7456997759
 H         -4.5769546820        2.2811061888        1.5733359812
 H         -3.8731229948        4.6399166972        1.3128701623
  78
  -124.520185490000       0.315170825022063      !
 N         -2.2272704160        6.6956618253       -1.3297271981
 C         -2.5242498068        5.6099940844       -1.1116724151
 C         -2.8923503664        4.2719714123       -0.8443506144
 C         -3.6326567547        3.5541460833       -1.7867686908
 C         -3.9896733579        2.2481799154       -1.5266449879
 C         -3.6152557196        1.6493740224       -0.3232095389
 N         -3.9505623679        0.3107558551       -0.0722866323
 C         -3.0468846690       -0.7225192246        0.0939534845
 C         -1.6009045540       -0.5968123826        0.0532574658
 C         -0.8547119156       -1.4813685376        0.8354539418
 C          0.5212019435       -1.4283339186        0.8388616534
 C          1.2030305648       -0.4950660880        0.0566874860
 C          2.6699906553       -0.4402184232        0.0683377132
 C          3.3894890473       -0.2082440775       -1.1029723320
 C          4.7687957591       -0.1710606758       -1.0935789812
 C          5.4679340901       -0.3743136213        0.0937446986
 N          6.8671543491       -0.3562208218        0.1037350136
 C          7.6886179600       -1.0562001623       -0.7592078913
 C          7.3567015427       -1.9388800065       -1.7771181768
 C          8.3884254415       -2.5316920776       -2.4796527689
 C          9.7220894617       -2.2666676294       -2.1768852703
 C         10.0588519638       -1.4104312243       -1.1477747547
 C          9.0392087285       -0.8018064050       -0.4279537964
 C          9.0229609030        0.1005011102        0.6891514471
 C         10.0211271929        0.7128744430        1.4352011653
 C          9.6544258670        1.5655381853        2.4571209390
 C          8.3123844254        1.8232821679        2.7270011276
 C          7.3014724623        1.2262273249        1.9981223993
 C          7.6631010469        0.3471216249        0.9872713197
 C          4.7580826667       -0.6026389393        1.2699493292
 C          3.3788215520       -0.6305903925        1.2538491647
 C          0.4559427403        0.3669714032       -0.7438173123
 C         -0.9236344110        0.3175409136       -0.7518477254
 N         -3.6478769306       -1.8683091943        0.2852602481
 C         -4.9804696512       -1.6122285413        0.2437052640
 C         -6.0495788581       -2.5429586773        0.3638324281
 C         -5.8034802036       -3.9079531726        0.5444065369
 C         -6.8481515110       -4.7940122912        0.6266916353
 C         -8.1553340406       -4.3217153701        0.5241358595
 C         -8.4081630366       -2.9809301133        0.3517486761
 C         -7.3678235936       -2.0420482645        0.2728492139
 C         -7.6000084679       -0.6149107632        0.1323898100
 C         -8.8963478736       -0.0807465549        0.1173923916
 C         -9.1285443893        1.2718857165        0.0398840924
 C         -8.0601016036        2.1615276616       -0.0057443811
 C         -6.7747593199        1.6790900689       -0.0058217412
 C         -6.5158640396        0.3014285116        0.0367677866
 C         -5.2052461554       -0.2539466131        0.0312761913
 C         -2.8769800569        2.3657688750        0.6165188210
 C         -2.5160198238        3.6719837280        0.3586388723
 H         -3.9171218380        4.0246566481       -2.7159519657
 H         -4.5603191053        1.6804272241       -2.2467488694
 H         -1.3827913175       -2.2088897646        1.4316222878
 H          1.0807528503       -2.1321866485        1.4369399856
 H          2.8622328890       -0.0720694375       -2.0355683496
 H          5.3139743962        0.0263552885       -2.0044312813
 H          6.3273121318       -2.1682458776       -2.0078291617
 H          8.1546565027       -3.2190412046       -3.2792139024
 H         10.4993484428       -2.7479784786       -2.7513707740
 H         11.0918923183       -1.2183038367       -0.9002540781
 H         11.0610141865        0.5260964313        1.2136553485
 H         10.4147742319        2.0491833044        3.0518662192
 H          8.0553758814        2.5075042351        3.5221158578
 H          6.2653470633        1.4490089787        2.2040350937
 H          5.2949224925       -0.7738867445        2.1909736478
 H          2.8417559923       -0.7918758955        2.1768578808
 H          0.9608820270        1.0967246364       -1.3597976110
 H         -1.4680036127        0.9799096136       -1.4081012080
 H         -4.7761285723       -4.2310554754        0.6084037447
 H         -6.6645027080       -5.8489815579        0.7653179024
 H         -8.9807018746       -5.0163716739        0.5820693332
 H         -9.4359565610       -2.6636908017        0.2754973341
 H         -9.7472373252       -0.7396932359        0.1768603902
 H        -10.1415755157        1.6454702596        0.0309134459
 H         -8.2390202619        3.2259985761       -0.0357731139
 H         -5.9510144074        2.3753838560       -0.0185270707
 H         -2.5903062183        1.8894420266        1.5419271869
 H         -1.9459186218        4.2352300241        1.0819717306
  78
  -124.519910870000       0.235689044018551      !
 N         -2.5211015854        6.8556531115       -1.1585678598
 C         -2.7680931986        5.7538586177       -0.9591633363
 C         -3.0768279986        4.3966971732       -0.7135439158
 C         -3.7326218468        3.6460658226       -1.6924397366
 C         -4.0328483183        2.3219879002       -1.4534189954
 C         -3.6862611666        1.7373487587       -0.2346285832
 N         -3.9653650879        0.3830888009       -0.0010269438
 C         -3.0188089597       -0.5982112055        0.2270340096
 C         -1.5793490784       -0.4064279338        0.2429148861
 C         -0.8243805058       -1.2508628733        1.0598149097
 C          0.5504602108       -1.1715410158        1.0733873136
 C          1.2209292508       -0.2555255228        0.2623329658
 C          2.6887181357       -0.2248899809        0.2343145212
 C          3.3695277123       -0.0917359225       -0.9747653273
 C          4.7480130435       -0.1256961532       -1.0197147334
 C          5.4832555055       -0.2980349059        0.1503440623
 N          6.8798154403       -0.3786443336        0.0972449622
 C          7.6005165494       -1.2088523439       -0.7396552596
 C          7.1492497942       -2.1453489276       -1.6587750292
 C          8.0947522889       -2.8743755499       -2.3542331468
 C          9.4588081862       -2.6888602897       -2.1400970151
 C          9.9132384575       -1.7769533842       -1.2086951810
 C          8.9818637972       -1.0325164105       -0.4967222313
 C          9.0909852579       -0.0416571832        0.5370152557
 C         10.1690029649        0.5532153084        1.1789164276
 C          9.9193685522        1.5113894855        2.1408126534
 C          8.6154190829        1.8889354329        2.4540838704
 C          7.5266001034        1.3118152575        1.8288750931
 C          7.7703534931        0.3306799143        0.8785610292
 C          4.8131073492       -0.4077474531        1.3660058940
 C          3.4339553081       -0.3708127609        1.4032156145
 C          0.4649317783        0.5849409978       -0.5522311510
 C         -0.9136252315        0.5134396509       -0.5656554721
 N         -3.5663589353       -1.7751611309        0.3870204693
 C         -4.9055547747       -1.5936943489        0.2583833388
 C         -5.9249446114       -2.5850238153        0.3001470051
 C         -5.6141287697       -3.9346168418        0.4953600031
 C         -6.6080859187       -4.8809189377        0.4896739749
 C         -7.9282366426       -4.4850777436        0.2829684759
 C         -8.2450585250       -3.1597131406        0.0969560005
 C         -7.2590194988       -2.1610597822        0.1070895234
 C         -7.5623774793       -0.7486317184       -0.0461152700
 C         -8.8830282212       -0.2899600266       -0.1522677973
 C         -9.1866668247        1.0474767385       -0.2461387235
 C         -8.1707725398        1.9972179424       -0.2152081943
 C         -6.8630609188        1.5896094219       -0.1223927081
 C         -6.5287315581        0.2290341230       -0.0624132506
 C         -5.1912122615       -0.2504998258        0.0246367252
 C         -3.0296916676        2.4856191866        0.7403520734
 C         -2.7256502013        3.8102751419        0.5037360217
 H         -3.9968116561        4.1061350335       -2.6328359714
 H         -4.5376086400        1.7290415055       -2.2018436788
 H         -1.3429724397       -1.9754923534        1.6678355931
 H          1.1189063898       -1.8483524278        1.6939329213
 H          2.8105527172        0.0161486930       -1.8925191057
 H          5.2655275455       -0.0155042480       -1.9609675341
 H          6.0944602490       -2.3111635817       -1.8183727031
 H          7.7682511420       -3.6072772006       -3.0770775476
 H         10.1661407562       -3.2758561678       -2.7065421801
 H         10.9696667499       -1.6448774839       -1.0303822513
 H         11.1795336281        0.2710502837        0.9247211326
 H         10.7432553969        1.9838229263        2.6544303643
 H          8.4518007450        2.6524169724        3.2001648061
 H          6.5207775730        1.6246974262        2.0658275139
 H          5.3792439529       -0.5452961274        2.2751692177
 H          2.9258809884       -0.4524373739        2.3528803273
 H          0.9631432124        1.3085971929       -1.1810574246
 H         -1.4656991470        1.1555990377       -1.2355874640
 H         -4.5779864033       -4.1980838658        0.6395035797
 H         -6.3739720677       -5.9245223034        0.6375737824
 H         -8.7129157978       -5.2275037418        0.2681646189
 H         -9.2799260153       -2.9025988825       -0.0629671936
 H         -9.6966602278       -0.9969199871       -0.1512247668
 H        -10.2163257156        1.3620457636       -0.3275989617
 H         -8.4079491751        3.0497290335       -0.2585429890
 H         -6.0822567088        2.3323228035       -0.0740888347
 H         -2.7629120438        2.0200069214        1.6772019053
 H         -2.2228874907        4.3990908860        1.2560657427
