  70
        -98.29907766
 C          0.1697500353        1.7357307585       -3.8203032840
 C          0.2621968531        0.4117613063       -3.0730366527
 C          1.6848242679        0.1390452107       -2.5936768389
 C          1.7453968855       -1.1238862105       -1.7352578687
 O          3.0367106389       -1.3822391410       -1.2200708203
 C          3.6188456834       -0.6164121682       -0.2519854429
 C          5.0111303856       -0.7511098931       -0.2143659509
 C          5.7795778950       -0.0963747305        0.7225470541
 C          5.1698058158        0.7273077615        1.6553500352
 C          3.7975886500        0.8664249482        1.6314326923
 C          2.9988306103        0.2054812180        0.6982849798
 C          1.5360449945        0.4230013484        0.8090132721
 C          0.7309209796       -0.5495828363        1.4216414588
 C          1.2837913406       -1.7367672203        1.9679199693
 C          0.4928946928       -2.6687760969        2.5669926512
 C         -0.8987824148       -2.4668346145        2.6604077576
 C         -1.4676749788       -1.3451722530        2.1386552472
 C         -0.6821816446       -0.3561266309        1.4922995053
 C         -1.2574254441        0.7913687594        0.9290639794
 C         -2.7301871039        0.9070526514        0.8608714137
 C         -3.4410242159        1.7865508357        1.6594631178
 C         -4.8212859429        1.8697167118        1.5672227141
 C         -5.4922156630        1.0718248215        0.6604843659
 C         -4.7988785316        0.1880355186       -0.1521332713
 C         -3.4165034693        0.0928108895       -0.0575601481
 O         -2.6351705678       -0.7327866285       -0.8046528579
 C         -3.2446456091       -1.7125349027       -1.6171475067
 C         -2.1630275650       -2.6912506833       -2.0653851148
 C         -1.6061233453       -3.4904346757       -0.8895034246
 C         -0.5371329700       -4.4816381040       -1.3284916104
 C         -0.4471535095        1.7958160248        0.3860745653
 C         -0.9949917974        2.9860181349       -0.1616436967
 C         -0.1954098827        3.9628962773       -0.6686475586
 C          1.2062719789        3.8074698120       -0.6677563301
 C          1.7699640421        2.6681858519       -0.1823092595
 C          0.9716754560        1.6220715519        0.3540171416
 H          0.4602977859        2.5559110451       -3.1684116225
 H         -0.8478433876        1.9122062928       -4.1602646606
 H          0.8270133586        1.7335405548       -4.6872544559
 H         -0.0607088934       -0.3997257830       -3.7298893554
 H         -0.4090090398        0.4349998807       -2.2123051457
 H          2.0352835678        0.9891008707       -2.0074800230
 H          2.3543148409        0.0249119242       -3.4492407785
 H          1.5359732226       -2.0012900893       -2.3555654365
 H          0.9954664435       -1.0765537751       -0.9423110211
 H          5.4645874154       -1.3965807099       -0.9508587677
 H          6.8514876946       -0.2238452280        0.7224481729
 H          5.7565293531        1.2514684135        2.3940550714
 H          3.3061046844        1.4958386812        2.3599933691
 H          2.3524937503       -1.8808696573        1.9082018232
 H          0.9264891044       -3.5660254898        2.9835263681
 H         -1.5087706539       -3.2108901603        3.1515646371
 H         -2.5328011539       -1.1847527106        2.2166745945
 H         -2.9024136445        2.4034795074        2.3642125530
 H         -5.3657749454        2.5549271318        2.1987462541
 H         -6.5672657395        1.1313737603        0.5770834288
 H         -5.3451499133       -0.4165226460       -0.8593666184
 H         -4.0175504747       -2.2494122501       -1.0505829444
 H         -3.7143457741       -1.2380468891       -2.4912483967
 H         -2.5922370148       -3.3663798401       -2.8083414970
 H         -1.3562442497       -2.1268292077       -2.5336975549
 H         -1.1847692660       -2.7971549846       -0.1618139175
 H         -2.4220240467       -4.0309515982       -0.4032518128
 H         -0.9420970224       -5.1914054502       -2.0469442710
 H          0.2990405222       -3.9633306987       -1.7910491567
 H         -0.1614246780       -5.0350287073       -0.4716335009
 H         -2.0679967617        3.1039060286       -0.1625711851
 H         -0.6261966923        4.8658900450       -1.0759836352
 H          1.8267518137        4.5977900031       -1.0650579907
 H          2.8435273744        2.5459529715       -0.1881914832
