84
 energy: -133.667001441582 gnorm: 0.000061083166 xtb: 6.7.1 (edcfbbe)
O            7.39466845853431       -1.39698510087056       -2.43988322135387
C            6.99334783569676       -1.05237267478954       -1.34617039641627
C            7.92441501496120       -0.81968452140710       -0.21277577545589
C            7.57556598553905       -1.12429892617583        1.10136846358227
C            8.48789539767016       -0.92832629384059        2.12185075117789
C            9.74747152464928       -0.42147928681753        1.84408893812832
C           10.10451838401686       -0.12760639989544        0.53766849331840
C            9.20207134028799       -0.33637884140298       -0.48747939968393
C            5.54628875487758       -0.84424410706293       -1.08400573685847
C            5.08518448885112        0.11279214531878       -0.18190774346548
C            3.73055228552745        0.29978466171372        0.00441765926536
C            2.81090743352276       -0.46795903136888       -0.70851453158418
N            1.43882356631925       -0.28171613970459       -0.51472516899271
C            0.51023904809475       -1.28128468809851       -0.29578896168033
C            0.69535503113674       -2.64975533534350       -0.15548567955901
C           -0.41212966712576       -3.43210142190973        0.09805440531976
C           -1.69277320384198       -2.87505421270659        0.20684834595325
N           -2.78893632164651       -3.71516218037676        0.45337119734921
C           -3.72431866784344       -3.54991773602016        1.45495168060014
C           -3.79635340500521       -2.58240796359910        2.44701880141453
C           -4.83689629269011       -2.66301564996296        3.35231023207404
C           -5.78358798489253       -3.68294187524237        3.28427767939384
C           -5.70474215361942       -4.66076638819019        2.31318016305921
C           -4.66757269609674       -4.60148307170734        1.39163251101795
C           -4.27559258252795       -5.43527106842138        0.29034300820460
C           -4.80496354484653       -6.59031969902716       -0.27003711228782
C           -4.17536427336294       -7.14182144268031       -1.36774068091837
C           -3.04022614831749       -6.54828713685435       -1.91576729229678
C           -2.49491637719642       -5.39925995304457       -1.37629857835332
C           -3.10991299770220       -4.85296430420247       -0.25875314790246
C           -1.87936532137075       -1.50545262897488        0.08926378402034
C           -0.77209525124235       -0.70501569552787       -0.14831642366570
C           -0.60140647162969        0.71328978621182       -0.29382986850873
C           -1.48529379652190        1.78132215253250       -0.25679710488064
C           -0.98874465476489        3.05866444249981       -0.47157851703470
N           -1.85384830176370        4.16288625944195       -0.44687456864612
C           -3.03170371109649        4.28325460977659       -1.15660594814050
C           -3.61550582973120        3.40363362283203       -2.05707539728704
C           -4.80097242914891        3.78534349642327       -2.65517406458865
C           -5.39475326901803        5.01431978284348       -2.37551511873146
C           -4.80769783269109        5.90265675539597       -1.49713133776990
C           -3.61547416108818        5.54179790798970       -0.88317949174552
C           -2.74075223898210        6.20475670196322        0.04257526559129
C           -2.78102172529625        7.43724290331375        0.68107384836474
C           -1.76033176136696        7.76583093474907        1.55043473699741
C           -0.71583830621258        6.87749642242208        1.79743374077847
C           -0.65359406379409        5.64589331290774        1.17459847227875
C           -1.66479478931788        5.31910320513963        0.28225965680219
C            0.37293460497281        3.25997080163774       -0.73129226799014
C            1.26598605434807        2.20890642867249       -0.75362138656102
C            0.77746927124609        0.93158088496125       -0.51598805722933
C            3.26786400191428       -1.41674575339511       -1.62212052604861
C            4.62180222102569       -1.59349431466063       -1.81067410959308
H            6.60120876351177       -1.53753867409202        1.31878492530796
H            8.21660854316799       -1.17272328008392        3.13837211697453
H           10.45353429764135       -0.26351335905504        2.64589379592546
H           11.08917001786740        0.25826082962063        0.31954868396870
H            9.46542412731926       -0.12314917489467       -1.51280349918002
H            5.78936044576313        0.72293521617495        0.36419510272119
H            3.37536713298217        1.02948551015257        0.71638672383492
H            1.67666967571702       -3.09394733864181       -0.21997553689599
H           -0.29670056886044       -4.49686755038224        0.23224797275706
H           -3.05804168447503       -1.79777531241460        2.51890902407128
H           -4.91636718833339       -1.91999291616195        4.13228052037360
H           -6.58364236425945       -3.70916134458499        4.00910563879276
H           -6.42959700589164       -5.45964516435625        2.26917735716270
H           -5.69332695931940       -7.04164080939120        0.14551814437899
H           -4.56939893575779       -8.04117097167240       -1.81722591464405
H           -2.57816703124684       -6.99461680047574       -2.78412376129325
H           -1.62486762012388       -4.93704476559059       -1.81818978182266
H           -2.86573174534904       -1.07678690556898        0.17438241614534
H           -2.53464648103339        1.62639881854422       -0.05982783149489
H           -3.15445289083686        2.45641536872532       -2.29385402703902
H           -5.27645825965792        3.11696708915483       -3.35793786033351
H           -6.32308171662233        5.27443092923034       -2.86201666551661
H           -5.25978909589842        6.86124330268165       -1.29147443293073
H           -3.59814769102877        8.11945743486126        0.50096666813251
H           -1.77141418896739        8.72029928979499        2.05543229537723
H            0.06096431904344        7.15667114609727        2.49421509744919
H            0.15103174918846        4.95712604274542        1.38479110147103
H            0.71959409877382        4.26199711423127       -0.93338793820284
H            2.30820697324243        2.38035439543984       -0.97436188546368
H            2.55587700189767       -1.98989250008772       -2.19638991557097
H            4.98893181009169       -2.31353199545804       -2.52655175390409
