84
 energy: -133.585563287682 gnorm: 0.000102040501 xtb: 6.7.1 (edcfbbe)
O            6.95363854912334        3.48684948857009        0.88911183424398
C            6.68942977068568        2.40439989155916        0.29023838458633
C            7.78482245875712        1.66518914448190       -0.35551780904108
C            7.81930050274565        0.26816442463792       -0.38439213757691
C            8.88289849126563       -0.38557757279249       -0.97394057476969
C            9.93166137559883        0.33241617809881       -1.52911184978167
C            9.92082055096908        1.71794416325470       -1.46899199441341
C            8.86614079206235        2.38229352333245       -0.87871263374166
C            5.34359369769763        1.91049798135353        0.21853822184509
C            4.37688824503357        2.48171726387141        1.08383098528133
C            3.07535392551258        2.06344869585069        1.06309336809355
C            2.66224071671831        1.07712134528217        0.15641110481579
N            1.32949976718485        0.64282790011511        0.13451616895052
C            0.90884706382589       -0.66553879818611        0.15039689566508
C            1.65343361003175       -1.83712607179281        0.21827159046363
C            0.97806841320190       -3.03829719768060        0.23313100675351
C           -0.42397884710080       -3.08913302144252        0.19397905706858
N           -1.07020827103923       -4.33048400996477        0.19985401496075
C           -0.82002331674628       -5.37308596529827        1.07021443622982
C            0.04904073660153       -5.43429138606086        2.15077850611263
C            0.08430057353295       -6.60516792078610        2.88440219192271
C           -0.72893658243005       -7.68928575308589        2.56377117829506
C           -1.61639089019347       -7.62413387731304        1.50642566309389
C           -1.66938511175380       -6.45904316363681        0.75511056292458
C           -2.46640905023172       -6.04195056476497       -0.36636659612734
C           -3.44870435400028       -6.66436861611426       -1.12294373161728
C           -4.01247742008313       -5.96906994922893       -2.17586084880789
C           -3.59527184613385       -4.67730006335705       -2.48669711016227
C           -2.61754439992676       -4.03746498485661       -1.74841361766531
C           -2.06642636198436       -4.72074872362401       -0.67326416447528
C           -1.17556893183179       -1.92047891111441        0.15372146572522
C           -0.50983563565340       -0.70654652931355        0.13383226389347
C           -0.95148348460250        0.65780671532763        0.10691152176721
C           -2.20196262368940        1.25190297403871        0.07859459037199
C           -2.27604945607092        2.63896200496034        0.02260085870178
N           -3.52512060077431        3.26842184249774       -0.01025837234361
C           -4.57338969518860        2.93797070782111       -0.84647958124036
C           -4.63516943717588        1.98452210478606       -1.85332584591677
C           -5.81300148233545        1.87688665185720       -2.56866914491473
C           -6.90337497277369        2.70107653619315       -2.30228839444908
C           -6.83827316776502        3.67100196084757       -1.31986564186940
C           -5.66669909885063        3.79685165429287       -0.58772798884684
C           -5.24846792688096        4.68428204583364        0.46338498481040
C           -5.87620571559116        5.71506733128231        1.14745951208129
C           -5.17851814955036        6.36651914621446        2.14693737987099
C           -3.87922525582739        5.98919847111069        2.47685634596365
C           -3.23370587317572        4.96500954040772        1.80993046561916
C           -3.91956023067893        4.32510344036788        0.78688149755959
C           -1.10894925315580        3.41836597013383       -0.01614671444562
C            0.14145855931638        2.84118052368339        0.02271179940671
C            0.22234273722531        1.45561150331535        0.10194185331372
C            3.59241536207804        0.54715882949084       -0.74717787984331
C            4.89907719291655        0.96048411231771       -0.72787547338123
H            7.03186091259081       -0.30204557803634        0.08595054012287
H            8.90027831485455       -1.46625477918326       -0.98959144993228
H           10.75919127941636       -0.18620470597517       -1.99004774145114
H           10.74286071133315        2.28347038979293       -1.88375427098980
H            8.85150466813569        3.46007963815410       -0.82352800864281
H            4.70920736226740        3.23451471546533        1.78195018117739
H            2.36112606720126        2.46626231862045        1.76676792107485
H            2.73097989118369       -1.81017008677966        0.25599752068562
H            1.53088113311620       -3.96472008430289        0.25488985120820
H            0.66867554108910       -4.59275837141192        2.42051850679303
H            0.75483075127139       -6.67888353444959        3.72755611342183
H           -0.66958291036976       -8.58790307306979        3.15919630579496
H           -2.26009009885426       -8.45762907251521        1.26980419443247
H           -3.75955240912893       -7.67222776029355       -0.89364784442364
H           -4.78052377854645       -6.43420324714906       -2.77533258392016
H           -4.04210964683246       -4.16545967464634       -3.32602264762076
H           -2.28594856292897       -3.04427733259239       -2.01083040916913
H           -2.25374046493813       -1.96304944977673        0.16594019453076
H           -3.10101217706759        0.65671467285798        0.12035849513294
H           -3.78812780700677        1.35621980170167       -2.08328189262133
H           -5.88717310272307        1.14029818998763       -3.35480252818121
H           -7.80697703514666        2.58468041954776       -2.88155248197363
H           -7.67696646803561        4.32232202361195       -1.12664138063642
H           -6.88969551124735        5.99579083672789        0.90443597335105
H           -5.64750847525344        7.17360019219796        2.68933947877339
H           -3.36543723470617        6.50541110028555        3.27396783934375
H           -2.23381946102062        4.66740812580983        2.08640184334152
H           -1.20354640622757        4.48947556713025       -0.10652996618813
H            1.03160787773786        3.44785835019453       -0.03301173849368
H            3.25864831314089       -0.16282056684138       -1.49067514885074
H            5.58367406794486        0.58396033422626       -1.47212185199302
