84
 energy: -133.667339278320 gnorm: 0.000045819995 xtb: 6.7.1 (edcfbbe)
O            6.65286627507454       -4.08334851959540        1.04706574804230
C            6.50485415310232       -2.93376808123047        0.68257232813638
C            7.66349113818948       -2.06069047436391        0.36518769062439
C            8.81206922592707       -2.64236616475512       -0.16748926266354
C            9.91732073170913       -1.86569409827202       -0.45758767476855
C            9.89422057765778       -0.50476108321292       -0.19703298606970
C            8.76524834483209        0.07627888082935        0.35822915567567
C            7.65092495200295       -0.69394646568879        0.63597011049680
C            5.15333342117646       -2.33734755091165        0.53495268635498
C            4.12614612196718       -2.79874095770853        1.35720290953753
C            2.85161507645100       -2.28518232612876        1.24827730403379
C            2.57262903800232       -1.31554192580274        0.28595502795617
N            1.28216811800592       -0.79294968573440        0.16403769058181
C            0.11161060106764       -1.52594813984182        0.10762168888576
C           -0.07647227373003       -2.90102064179917        0.09640795456339
C           -1.36806796876151       -3.37922361260972        0.01375939165659
C           -2.46453705098116       -2.51318503549455       -0.08413115059196
N           -3.76068281521040       -3.04470818365158       -0.15595272599758
C           -4.82493121626443       -2.67558893102865        0.64205643283188
C           -4.87414594496420       -1.75738659895152        1.68124696330473
C           -6.07692323961280       -1.59351263140923        2.34090650110174
C           -7.20706416807174       -2.32728429326368        1.98671746640224
C           -7.15877665956659       -3.25752272305125        0.96802517388456
C           -5.96091293118011       -3.44006190836352        0.28955415307109
C           -5.55297586054667       -4.30686462904768       -0.78000817214037
C           -6.21462498132455       -5.26073654574728       -1.54203788617346
C           -5.51468378260136       -5.91613819973451       -2.53498880661092
C           -4.17592465445141       -5.62009602893087       -2.78241047999206
C           -3.49585167650052       -4.67584426870736       -2.03768218818967
C           -4.18736392149240       -4.03091931533796       -1.02204864425176
C           -2.27805614669064       -1.13868964799656       -0.11204633324780
C           -0.98673123605183       -0.64408257041634       -0.01186580296927
C           -0.44464275931069        0.68551517790766       -0.01937120325405
C           -1.02434686631484        1.94266932930693       -0.09753545472755
C           -0.19946655429874        3.05653151641061       -0.03893429671867
N           -0.75257376859607        4.34411930165350       -0.10408822551523
C           -0.34439159553008        5.35674310203148       -0.94802110686081
C            0.63230016936667        5.34630048694422       -1.93368890275107
C            0.82689385188742        6.50439143675358       -2.66143546587034
C            0.06657369314124        7.64797857393593       -2.42640600701775
C           -0.92186474853183        7.65746882086908       -1.46285885392779
C           -1.13639062611712        6.50536334212755       -0.71791663142358
C           -2.06382280317621        6.15911007744204        0.32210112899710
C           -3.06722411714648        6.85879455047287        0.97951825498107
C           -3.77897514972420        6.21746804488831        1.97319818617446
C           -3.49153588271466        4.90005430856128        2.32382433608150
C           -2.49829161236260        4.18335445332731        1.68473466506003
C           -1.79420219912703        4.81527410756370        0.66961763178930
C            1.18619224342312        2.91059389011641        0.10400848498099
C            1.77757969149800        1.66571663109542        0.16525743003596
C            0.95807120304869        0.54814139585122        0.08779556809944
C            3.58885998299454       -0.87377525661440       -0.56043849449738
C            4.86812357420131       -1.37417341793030       -0.43161025555090
H            8.81470407990822       -3.70595885755691       -0.35414334592943
H           10.80030618412721       -2.32051964416014       -0.88123010569675
H           10.75918970006928        0.10273900146578       -0.41873067272052
H            8.75463300811980        1.13406486887532        0.57653809619704
H            6.77956266204370       -0.24188839059703        1.08738279572648
H            4.35450396088336       -3.55443549920234        2.09375096841004
H            2.06913899143171       -2.61713621855828        1.91358282470541
H            0.75755917143973       -3.58355646226980        0.14813780995757
H           -1.54692618927742       -4.44338860815249        0.03369020854609
H           -3.99950405319996       -1.19598450751183        1.97412800843054
H           -6.14178245211999       -0.88248718131038        3.15144513946477
H           -8.12943529306157       -2.16802836008829        2.52525123593719
H           -8.03051098330404       -3.83656427115851        0.70282518074621
H           -7.25634983936759       -5.47850123264438       -1.36046620122185
H           -6.00975643106159       -6.66311152148195       -3.13754345398283
H           -3.65887704304071       -6.13785824510088       -3.57697129795000
H           -2.46339908534463       -4.44078206476776       -2.24898898009557
H           -3.12005955661398       -0.47351563424712       -0.22432728249691
H           -2.09164651625798        2.05542779541388       -0.20709612224491
H            1.21464093856471        4.45951798069503       -2.13484565796993
H            1.58299800366922        6.52249683425218       -3.43268919665732
H            0.25103365006856        8.53414365750888       -3.01532800972534
H           -1.52137132981476        8.53871580139866       -1.29098973994777
H           -3.27959893558031        7.88440548711410        0.71766844804232
H           -4.56506000803201        6.74264467215875        2.49508951587593
H           -4.05595462269862        4.42931290397807        3.11535137650765
H           -2.27139400943478        3.16867954172365        1.97593167323377
H            1.79554983528225        3.79795368035701        0.18392677697723
H            2.84494935238110        1.57227216075351        0.29361654855331
H            3.36165266011129       -0.15233393456825       -1.33082137825564
H            5.64320614546362       -1.04091017996334       -1.10581440547092
