115
 energy: -172.047819446049 gnorm: 0.000064019311 xtb: 6.7.1 (edcfbbe)
C           -1.13671264428975       -8.71073347202616       -1.44294250836138
C           -0.13849318645097       -8.14960520110983       -0.42573410377049
C            1.26668507341482       -8.63278218238344       -0.81554189592946
C           -0.51029675901614       -8.69485554525946        0.96154868395759
C           -0.14245495268291       -6.63038100766542       -0.37636380735844
C           -0.96915150296758       -5.84688629004403       -1.17420914390349
C           -0.94783909011815       -4.46642105403915       -1.09594315737031
C           -0.08612731030262       -3.81213759659228       -0.22067602102700
C           -0.05760072548450       -2.34732796895440       -0.14003631248235
C            1.15013436808362       -1.66956502845642        0.01553795997888
C            1.18928775600216       -0.28666854619658        0.10274857251293
N            2.41372098160352        0.36442647266931        0.27828746041927
C            2.73774056570762        1.23308785429981        1.30508296182731
C            1.99311817587502        1.61625594344613        2.40995488235444
C            2.58107106658376        2.47021291409606        3.32106726213304
C            3.89066473738124        2.94232303414201        3.16203791918648
C            4.47361125658464        3.85278857779175        4.16083614211206
C            4.26765315381842        3.64425460152221        5.52311944540460
C            4.82220978247351        4.49758199078294        6.45926969449353
C            5.58908094444782        5.57651681851938        6.05126997818360
C            5.79974923943968        5.79469857637353        4.69967919557080
C            5.24897030031944        4.93998412124398        3.76255165197557
C            4.63853728942226        2.53424549149993        2.06430712388425
C            4.06944154119851        1.67351017371861        1.13902491129306
C            4.56717979230773        1.03677209816966       -0.05127660377300
C            5.77860742075072        1.08785852928446       -0.72323418781807
C            5.94148399953728        0.34678720720227       -1.88766615077237
C            7.21805989486032        0.38468804246321       -2.61946075334434
C            8.43017359427549        0.33740404069007       -1.93377873167104
C            9.63034800397995        0.37389428943622       -2.61953735794900
C            9.64085991424740        0.46269671226258       -4.00191239139483
C            8.44206283843393        0.51282173007053       -4.69410982202817
C            7.24106090186938        0.47177108177896       -4.00995309291066
C            4.88060767994243       -0.43313845341821       -2.36704574709799
C            3.66727740951640       -0.50253110102830       -1.71196005902395
C            3.51777948884796        0.23045553430676       -0.54440378720298
C           -0.00266600748523        0.45581455578505        0.01382146565142
C            0.02762190460557        1.86245887319057        0.08963406361363
N            0.05571973579221        3.00894070758311        0.15103501781090
C           -1.22278696870839       -0.22514727502910       -0.15246935890382
N           -2.42051920193397        0.48823100350120       -0.25248015462061
C           -3.53137344583313        0.30810426453732        0.55220871905759
C           -3.71546941553754       -0.54738271416864        1.62787981902537
C           -4.92704933055504       -0.50279419808609        2.28831569670767
C           -5.95180696803411        0.37275450261318        1.90498579721150
C           -7.22826356661961        0.37825770842480        2.63781290839263
C           -8.43895283313694        0.46400215273575        1.95322599585665
C           -9.63910934163039        0.46619894460708        2.63993028872081
C           -9.65108522439371        0.38676534912279        4.02282721573044
C           -8.45366921265058        0.30507391773461        4.71442989928204
C           -7.25287915752935        0.29862674434862        4.02875208282869
C           -5.75369237148326        1.23595078007900        0.83390635779716
C           -4.54331706881629        1.21134552211763        0.15854110457039
C           -4.01650181365816        1.95739774969869       -0.95322113098696
C           -4.54511503149652        2.94283901616749       -1.77232159975232
C           -3.77174056247200        3.45038723203399       -2.80889899479883
C           -4.30392421858669        4.50193559306119       -3.69064607056705
C           -5.61714318869784        4.44595649619732       -4.15296387745378
C           -6.11446869725995        5.43183845753901       -4.98531034271419
C           -5.31028843094213        6.49344070472489       -5.36609536949139
C           -4.00415262105889        6.56150583869217       -4.90967119905657
C           -3.50385983174577        5.57387249785908       -4.08109107790119
C           -2.48298456912015        2.94420198620417       -3.02387625885336
C           -1.94027956984647        1.95766429659983       -2.22599144718212
C           -2.70471421587061        1.48200130634852       -1.17188519293601
C           -1.23750723537585       -1.60984709914584       -0.21742116063613
C            0.74955080081001       -4.59065818008078        0.57804867088974
C            0.71391147409328       -5.96761868530645        0.50178767165673
H           -2.15494362594504       -8.41837491553570       -1.19610213645100
H           -0.90165442297012       -8.37441822276474       -2.45034282573289
H           -1.08916218380780       -9.79781896317250       -1.43350538068685
H            2.01064467626636       -8.32225523923310       -0.08707431654327
H            1.54916893987019       -8.22805187878544       -1.78563002019963
H            1.28377096115280       -9.71883722897825       -0.87699822832202
H            0.20811120769208       -8.38627406852436        1.71600691468698
H           -1.49320830015126       -8.33328241907560        1.25786927713618
H           -0.53505148240207       -9.78228302971592        0.94039703194787
H           -1.64796297764316       -6.30386144840332       -1.87535828970244
H           -1.59121381187486       -3.89038860686230       -1.74522936919568
H            2.07689929315802       -2.21926569850971        0.07174357514578
H            0.98314705409549        1.26454181692981        2.56236641618736
H            2.00747584719113        2.79816415638725        4.17517905046093
H            3.68461450801538        2.79497703859826        5.84941636922679
H            4.65730135176555        4.31918757219893        7.51243987503381
H            6.02040373060341        6.24396633314284        6.78311067699505
H            6.39384082105877        6.63687988000781        4.37433179232587
H            5.40198829255539        5.12598351189035        2.70913913047782
H            5.66052663912443        2.86108809350256        1.94634054931134
H            6.57700870834021        1.71601009600375       -0.35837153152629
H            8.42849195018110        0.25259277275435       -0.85642440105433
H           10.56222193012844        0.33104909046703       -2.07373193904367
H           10.57875679789166        0.49301307856153       -4.53722985775671
H            8.44330956414472        0.58685880386317       -5.77243753468594
H            6.30991233007840        0.52877041627511       -4.55536127541447
H            5.02397984565565       -1.01154678963880       -3.26767615220229
H            2.86274404507349       -1.10720590647893       -2.10354961144492
H           -2.93874611832445       -1.22711591388451        1.94552228968055
H           -5.09821189737726       -1.17541103986342        3.11566819588656
H           -8.43719922526321        0.50986753272314        0.87354477605882
H          -10.57000772502519        0.52736350901509        2.09420906630672
H          -10.58891274889162        0.38962495869292        4.55910390691041
H           -8.45573993770139        0.24852316864476        5.79380652139298
H           -6.32218946685417        0.25274861525764        4.57599840602976
H           -6.52269055400115        1.93678219487511        0.54653839605048
H           -5.53997620231229        3.32222779249167       -1.59476470917022
H           -6.24483740555902        3.61233241392949       -3.87237999838284
H           -7.13335490137658        5.37096969311904       -5.34071217972178
H           -5.69982560525328        7.26437498723118       -6.01501884315055
H           -3.37255904135958        7.38929522991311       -5.19928170832349
H           -2.48961703621031        5.64116681481459       -3.71410218210602
H           -1.90566143613731        3.32186771121146       -3.85467867388937
H           -0.95152123808605        1.57230457570855       -2.42770528301150
H           -2.18466440091972       -2.11379974559457       -0.33190904467528
H            1.41354042441482       -4.11372187740417        1.28432666521384
H            1.37106801251934       -6.53273630399751        1.14517586095359
