  115
       -171.88778989
 C         -1.3454076367       -8.0621777541       -4.6202111019
 C         -0.0248902915       -7.7151073952       -3.9275658251
 C          1.0858643899       -7.7133232520       -4.9887075533
 C          0.2658576820       -8.7997295090       -2.8790683653
 C         -0.0605435216       -6.3614696166       -3.2454980244
 C         -1.1801709589       -5.5279953616       -3.2467513014
 C         -1.1724496295       -4.3034083512       -2.6231549097
 C         -0.0331072367       -3.8150008265       -1.9464372682
 C         -0.0201616172       -2.5416624265       -1.2950746479
 C          1.1955895089       -1.8801992071       -0.9659027872
 C          1.2225080746       -0.6420188311       -0.3932112070
 N          2.4472107221       -0.0355994291       -0.0859793602
 C          3.4492618042       -0.5986237859        0.6673760960
 C          3.5003855113       -1.8406311325        1.2870568725
 C          4.6251356571       -2.1506788988        2.0227134962
 C          5.6987565339       -1.2579257224        2.1525985206
 C          6.8760096617       -1.6310965668        2.9461184111
 C          8.1595910418       -1.3037780921        2.5108167289
 C          9.2677577169       -1.6543112001        3.2581711339
 C          9.1142020264       -2.3303383440        4.4572799776
 C          7.8438688346       -2.6571246164        4.9024927489
 C          6.7345900241       -2.3147820258        4.1529924138
 C          5.6362481421       -0.0091006296        1.5356126231
 C          4.5137983034        0.3261717839        0.8024876911
 C          4.1153680783        1.5066668533        0.0796399763
 C          4.7214356448        2.7239994613       -0.1654332743
 C          4.0522304119        3.6731053524       -0.9371123843
 C          4.6620811173        4.9825600964       -1.1948234638
 C          6.0266962570        5.0972563894       -1.4577073662
 C          6.5954240280        6.3328704866       -1.7018287111
 C          5.8140213224        7.4764407724       -1.6805348701
 C          4.4580104295        7.3758205172       -1.4155870417
 C          3.8854593157        6.1407920313       -1.1783964403
 C          2.7927902495        3.3689768558       -1.4743877169
 C          2.1771631510        2.1566062592       -1.2525061344
 C          2.8311385382        1.2312264215       -0.4493862923
 C          0.0099589160        0.0543403444       -0.0490423284
 C          0.0246604287        1.1922533642        0.7304956183
 N          0.0405641515        2.1543097751        1.3814998088
 C         -1.2183882790       -0.6101525037       -0.3955672559
 N         -2.4304418202        0.0126873539       -0.0685481822
 C         -3.4404602325       -0.5522105022        0.6726351157
 C         -3.5066367618       -1.8032175465        1.2731095810
 C         -4.6456463647       -2.1203486965        1.9830450758
 C         -5.7128187082       -1.2203902508        2.1200889252
 C         -6.9055783934       -1.6045955650        2.8841087669
 C         -7.4322118610       -2.8919900494        2.7844043487
 C         -8.5565944321       -3.2507752950        3.5030619344
 C         -9.1714800536       -2.3335443614        4.3395172780
 C         -8.6552086389       -1.0529291465        4.4502388152
 C         -7.5357635856       -0.6892952260        3.7265654017
 C         -5.6285753226        0.0426485683        1.5355240102
 C         -4.4985902534        0.3788522294        0.8144522237
 C         -4.0886422668        1.5643693978        0.1070932298
 C         -4.6875029188        2.7872071803       -0.1278525593
 C         -4.0090899663        3.7423442657       -0.8836818549
 C         -4.6150336611        5.0553407369       -1.1324499159
 C         -5.9779603433        5.1730938615       -1.4026948676
 C         -6.5452161224        6.4112496864       -1.6365331905
 C         -5.7638980612        7.5544814422       -1.5978060416
 C         -4.4093778367        7.4506639826       -1.3267148704
 C         -3.8383355841        6.2131064019       -1.0992633898
 C         -2.7460410480        3.4394598019       -1.4129295675
 C         -2.1375099813        2.2213580269       -1.2014073312
 C         -2.8021044587        1.2879333915       -0.4163365407
 C         -1.2195325839       -1.8422268124       -0.9820734506
 C          1.0941406815       -4.6680758828       -1.9491052686
 C          1.0720031299       -5.8897886134       -2.5716085199
 H         -2.1629349159       -8.1040812373       -3.9042262298
 H         -1.5844904202       -7.3345326109       -5.3923778888
 H         -1.2616770178       -9.0388412929       -5.0926796269
 H          2.0588999026       -7.5289211628       -4.5421234162
 H          0.8974479609       -6.9369535922       -5.7275380172
 H          1.1200935350       -8.6744482384       -5.4974619803
 H          1.2244130594       -8.6346156346       -2.3953754859
 H         -0.5070601514       -8.7976082823       -2.1132888834
 H          0.2849298321       -9.7807915178       -3.3490763478
 H         -2.0832046834       -5.8317018862       -3.7516988336
 H         -2.0606057680       -3.6934783084       -2.6860947272
 H          2.1366897962       -2.3353385330       -1.2288061314
 H          2.6812185523       -2.5383331298        1.2033792270
 H          4.6916592154       -3.1176344973        2.4981162073
 H          8.2865842562       -0.7921200772        1.5676843588
 H         10.2560753461       -1.4006881403        2.9036671916
 H          9.9803332652       -2.6012535459        5.0421283403
 H          7.7172467993       -3.1790752469        5.8396234279
 H          5.7455293999       -2.5529763409        4.5165713004
 H          6.4410100828        0.6995920275        1.6574691997
 H          5.6898198622        2.9472047035        0.2553720742
 H          6.6381346175        4.2072241089       -1.4952593941
 H          7.6525209782        6.4048585848       -1.9121992353
 H          6.2598171319        8.4416155430       -1.8688433571
 H          3.8447135980        8.2647070622       -1.3909483283
 H          2.8321729555        6.0694940231       -0.9497687857
 H          2.3055618297        4.0993901101       -2.1020430504
 H          1.2194490561        1.9326801133       -1.6935821074
 H         -2.6870798548       -2.5012798041        1.1972818471
 H         -4.7093355938       -3.0813334747        2.4706762167
 H         -6.9697338693       -3.6058910313        2.1183163847
 H         -8.9560242902       -4.2501879331        3.4101633793
 H        -10.0471165224       -2.6162337709        4.9042647480
 H         -9.1272346247       -0.3346052598        5.1045099080
 H         -7.1264961652        0.3049083044        3.8328608897
 H         -6.4438831391        0.7432705248        1.6303055722
 H         -5.6576477631        3.0095956098        0.2890707452
 H         -6.5891229976        4.2836090205       -1.4541456506
 H         -7.6008834086        6.4853353316       -1.8531964504
 H         -6.2085361737        8.5217171656       -1.7780200376
 H         -3.7962227968        8.3391497089       -1.2888610046
 H         -2.7864404540        6.1393465843       -0.8653121088
 H         -2.2506117254        4.1748647381       -2.0282977321
 H         -1.1757125882        2.0013155711       -1.6351901707
 H         -2.1721476256       -2.2936433622       -1.2060120695
 H          1.9906339524       -4.3750407659       -1.4241572369
 H          1.9623127139       -6.5001652492       -2.5295651869
