115
 energy: -172.048992073006 gnorm: 0.000042743859 xtb: 6.7.1 (edcfbbe)
C           -0.85468782640587       -8.76623096635402       -3.06323498563745
C            0.21911952329636       -7.81117613932252       -3.59329992781554
C            0.03857398553850       -7.68278446452781       -5.11337025508971
C            1.59603325863299       -8.41744923884458       -3.28233662890355
C            0.13663333130926       -6.42925627119315       -2.96565870937130
C           -0.81631052082726       -6.08330923786311       -2.01392260448215
C           -0.85575193372535       -4.81601326043275       -1.46236134436255
C            0.06689686978145       -3.84242903559678       -1.83406409870279
C            0.03969798479625       -2.50793709418610       -1.22454481688141
C            1.22774271990768       -1.84097536108935       -0.93080608751809
C            1.21868021884715       -0.59020574724583       -0.33219675113923
N            2.42286963825007        0.04791746344321       -0.03037518882022
C            3.47713743493261       -0.51136212264519        0.67231093480884
C            3.59191293351143       -1.76625706341350        1.25142832293615
C            4.76418262083391       -2.06744876835982        1.91560773024691
C            5.81352044908793       -1.14593414111469        2.03006172079472
C            7.04866495189690       -1.52062970956996        2.73734674555076
C            7.62200478625442       -2.77665057884230        2.54875792528038
C            8.78681625615862       -3.12640138569589        3.20668855639992
C            9.39726368476562       -2.22920334689719        4.06753286656574
C            8.83527222894588       -0.97851639828300        4.26462123855910
C            7.67300019974469       -0.62559030027807        3.60372111980396
C            5.67705180370264        0.12105073221943        1.47586254953746
C            4.51134028555863        0.44215585121079        0.79789085496594
C            4.05794578255684        1.63086584312441        0.12610739817635
C            4.63472139086214        2.86995729415042       -0.10461874706771
C            3.93038923184800        3.82273446520520       -0.83032017951666
C            4.50999209507989        5.15241414047245       -1.07823503741562
C            5.85562567517457        5.29340448929493       -1.41131850053531
C            6.39631824289739        6.54410612392517       -1.64708043282693
C            5.60357066523448        7.67589920116237       -1.55004591245644
C            4.26537722759517        7.54818345470313       -1.21570177950722
C            3.72226935541128        6.29801212535637       -0.98293620772474
C            2.66454528093097        3.50621293078043       -1.34064493255383
C            2.07707495046478        2.27595806377967       -1.12903327639307
C            2.76589022573018        1.34581672595348       -0.36679796140593
C           -0.00779156994337        0.01929903390619       -0.00683561351916
C           -0.03195292174462        1.20299554825732        0.75580211420751
N           -0.05252240256208        2.12794401070276        1.43655243160701
C           -1.20999739001281       -0.63170497918077       -0.34156249160575
N           -2.43788130998591       -0.03443116236286       -0.05142820680780
C           -3.47261201617699       -0.63217214210325        0.64792517239578
C           -3.53811312454629       -1.88711503021976        1.23418338886449
C           -4.70023220222513       -2.23392654312487        1.89367238038326
C           -5.78753495776130       -1.35607507296905        1.99708660357729
C           -7.00935409313199       -1.77775476523284        2.70101418418407
C           -7.53061764010257       -3.05661656085229        2.51527251101428
C           -8.68264032569501       -3.45086677882240        3.17053021706743
C           -9.33190378550414       -2.57601300860369        4.02592483047715
C           -8.82170092123658       -1.30290804488340        4.22027902956044
C           -7.67228731501052       -0.90568624322847        3.56208232504730
C           -5.70033569444936       -0.08707539407320        1.43758910887848
C           -4.54564478151753        0.27836456340223        0.76313707383497
C           -4.13482556287779        1.48291624049372        0.09235897010743
C           -4.75724349683236        2.69906043436027       -0.14059230648633
C           -4.09096671282942        3.67426766187965       -0.87248688348577
C           -4.72775738407230        4.97725124625996       -1.12425401532015
C           -5.41310425476838        5.63665616035835       -0.10585746126498
C           -6.01361351335628        6.86048959710997       -0.33748155151959
C           -5.94509898326418        7.44395508235919       -1.59199011894370
C           -5.26845970925535        6.79648557924596       -2.61258526546214
C           -4.66254534597943        5.57513787737773       -2.38095040769107
C           -2.81305564154654        3.40588346077301       -1.37923580765933
C           -2.17428935491070        2.20356886712101       -1.15364501679443
C           -2.82971936545545        1.24815725388369       -0.39333840721658
C           -1.17266811473518       -1.88284379480782       -0.93880546363332
C            1.02354821789022       -4.18189947266083       -2.78913006317396
C            1.04978197760592       -5.44532692853109       -3.34234403020630
H           -0.75313632158367       -8.91448579510001       -1.99040569792728
H           -1.85326124636447       -8.39367338800927       -3.28053658032644
H           -0.74650897712238       -9.73514389423881       -3.54659338546004
H            0.81618815275706       -7.06633500985558       -5.55591371539021
H           -0.92570221421102       -7.23268840985073       -5.34202738130122
H            0.07883322392549       -8.66579944040810       -5.57780570222591
H            2.39900052577780       -7.81510863193969       -3.69823039085698
H            1.74331638313061       -8.48667474753780       -2.20612144209587
H            1.66723583638606       -9.41744183394424       -3.70486201968032
H           -1.54697392758474       -6.80275243979213       -1.68260783401474
H           -1.59943934290684       -4.59188993519972       -0.71165826479124
H            2.17654118491557       -2.29836793248096       -1.16316044735078
H            2.79033540433983       -2.48752894970586        1.19768623307108
H            4.86784988572430       -3.03591665497652        2.38205639866889
H            7.16028069070987       -3.47540612880253        1.86596955867162
H            9.22218467994659       -4.10239921322267        3.04543479185657
H           10.30629696285933       -2.50343123074518        4.58289379713163
H            9.30437450387983       -0.27538434417338        4.93816449070385
H            7.23116110519774        0.34567812074262        3.77452001766428
H            6.47580778181353        0.84260497868252        1.55538550753350
H            5.61303434354063        3.09638037483126        0.29124319971026
H            6.47566265376755        4.41344856254619       -1.50545504332063
H            7.44040593471581        6.63690270569313       -1.91045295274895
H            6.02663053651604        8.65279827313472       -1.73372059233515
H            3.64227451367303        8.42738764520458       -1.13286035482543
H            2.68241569273788        6.20626005847792       -0.70328267959949
H            2.14321859574420        4.23987785934734       -1.93742577742704
H            1.11143684926328        2.05214097591627       -1.55646335793948
H           -2.70353426356821       -2.57065558954908        1.19262912462177
H           -4.76642038083266       -3.20285540600357        2.36605618806586
H           -7.03871743667159       -3.73838362349548        1.83639847247910
H           -9.07773605639492       -4.44419513507943        3.01152894970626
H          -10.23105013562165       -2.88497829348810        4.53893685873079
H           -9.32129494951500       -0.61695541354465        4.88960690310774
H           -7.27062054427529        0.08322254376520        3.73069218938885
H           -6.52841027501165        0.60144808974427        1.50964224293105
H           -5.75835747892727        2.87667388404463        0.22204399367867
H           -5.45546649168493        5.19326332157180        0.87876170532708
H           -6.53560493878521        7.36282775263356        0.46452621462279
H           -6.41608058161938        8.39918280848786       -1.77315421883607
H           -5.21449049253178        7.24483429637975       -3.59454486310592
H           -4.14995007774608        5.06824926154217       -3.18594938476139
H           -2.30487113153075        4.17004736867033       -1.94836544490304
H           -1.19286624356364        2.02226772272755       -1.56489852600187
H           -2.10284163999922       -2.35632740440947       -1.21158695818265
H            1.73710388060514       -3.44189801982346       -3.12108446586965
H            1.80303690751615       -5.66318725686610       -4.08414741530813
