86
 energy: -133.118027786672 gnorm: 0.000050734609 xtb: 6.7.1 (edcfbbe)
O            3.80171472602033        3.99018430410657        0.01099926607927
C            3.63366460000482        2.77002022824532        0.02962511120328
C            4.73649529145829        1.84065528183280       -0.28814113451188
C            5.98828738691666        2.37776965320989       -0.60038172018130
C            7.05452600112536        1.55998816779206       -0.90449032864561
C            6.88037327358609        0.18242769713350       -0.90120921867091
C            5.64752269761311       -0.35963269129421       -0.59419503569151
C            4.56326412188603        0.45618286044514       -0.28465986611171
C            3.24551304262676       -0.19016711565415        0.04255537565065
C            2.14475461055977        0.78397632866639        0.37372647619337
C            0.90500419292497        0.27479224377467        0.70999580529824
C           -0.16196958771101        1.10242085061586        1.07464724984469
N           -1.38057743431656        0.57493754940095        1.42103869999419
C           -2.52422069457110        1.36471962059221        1.67185315570100
C           -2.55185095800264        2.29887983743836        2.69900660740547
C           -3.70749965439545        3.02125720357661        2.93723403499872
C           -4.83399043709283        2.80177722093392        2.16254480221934
C           -4.81580657432417        1.84728574298233        1.15855297985156
C           -3.66820920393984        1.11103975578742        0.91195839924777
C           -3.52857144290282        0.05851465004454       -0.17921375304346
C           -4.87933284173995       -0.36493481779126       -0.72279162360277
C           -5.20768810518121       -0.26563979417914       -2.06722890538660
C           -6.45546684696995       -0.66646325648769       -2.51793837451696
C           -7.38988351200841       -1.17303514518314       -1.63260624657839
C           -7.06928995160024       -1.28027365127247       -0.28850413853747
C           -5.82477410244283       -0.88123011611822        0.16116933385953
C           -2.62889279566910        0.64337368686551       -1.26682096800362
C           -1.71703580371170       -0.15311366393420       -1.94773514893028
C           -0.89798583023973        0.39014346337500       -2.92177495287758
C           -0.97644719883474        1.73686087382394       -3.22967674949267
C           -1.89280476757949        2.53517209256306       -2.56666794134963
C           -2.71344111606033        1.99211071795714       -1.59458817056513
C           -2.80763329156452       -1.11057235850387        0.47518007896479
C           -3.15863444577994       -2.44128657427647        0.31396447497196
C           -2.44186803862705       -3.43795143834338        0.95587954164561
C           -1.38097205523924       -3.11137000391225        1.78325021435308
C           -1.01394881886863       -1.78768583325104        1.94940295132272
C           -1.70347117057013       -0.79256882696671        1.26929727890229
C            0.04050106926295        2.49296800846828        1.02249810696696
C            1.26425429615733        2.99947177601295        0.67584509296931
C            2.34920027115627        2.16765198400542        0.36565827510501
C            3.40441813132162       -1.17672193602691        1.18819404448206
C            3.80504304632818       -0.92034455741265        2.48088554454944
C            3.86966620245336       -1.98084440947300        3.37619455523179
C            3.53721683189222       -3.26726952207015        2.97811700851953
C            3.13385914569474       -3.52808302728597        1.67785633605023
C            3.06611349588059       -2.47471928004469        0.78033561088137
C            2.69705008339139       -2.43592642140983       -0.62702163872159
C            2.30222810432351       -3.44172424968585       -1.49407344068428
C            2.04272356681760       -3.11432881045854       -2.81561164891480
C            2.17707411692432       -1.80915910269496       -3.26461228027523
C            2.56029733695706       -0.79324328498546       -2.39754942982057
C            2.81269941511530       -1.11470504397372       -1.08251356581360
H            6.08885404960930        3.45400049687043       -0.59384380312790
H            8.01682572662140        1.98753231876885       -1.14349928580270
H            7.70885449344878       -0.46849281037340       -1.13852033375760
H            5.51653448062401       -1.43214889663860       -0.59318654221643
H            0.76208736007598       -0.79306992768690        0.67289299866951
H           -1.67323237694824        2.44954593335076        3.30831394849183
H           -3.72804858712446        3.75166413736689        3.73206548856400
H           -5.73328764685483        3.37168233249204        2.34137741723726
H           -5.69875736797834        1.68307370059653        0.55935492596452
H           -4.48894222102482        0.12627146619680       -2.77138897553481
H           -6.69480235426517       -0.58100727043158       -3.56816095065621
H           -8.36232673193302       -1.48345292939533       -1.98597388059598
H           -7.79091802169016       -1.67690985559665        0.41104555587249
H           -5.57798253483469       -0.96935373755840        1.20997503214156
H           -1.64126523828909       -1.20618153907627       -1.71913817056450
H           -0.19103240821435       -0.24472260237735       -3.43384185304781
H           -0.33056997147238        2.16225885415198       -3.98396495597631
H           -1.96816122987695        3.58655881581610       -2.80410441425024
H           -3.42639406051019        2.62459088336091       -1.08595335168303
H           -3.99082445748001       -2.70335669368358       -0.32168137803888
H           -2.72207596326500       -4.47120974597598        0.81616658811628
H           -0.84091859971608       -3.88505747250924        2.30764392262915
H           -0.20372946030314       -1.52272769845826        2.61182989558679
H           -0.77453617591958        3.16718496066878        1.23030199820181
H            1.42469102864466        4.06741872609730        0.63322927260175
H            4.06480099595671        0.08197857656047        2.79032332552114
H            4.18346547287573       -1.80002622295629        4.39386331126964
H            3.59584525954788       -4.07637844410052        3.69167926025485
H            2.87688188645925       -4.53120902143359        1.37201971352321
H            2.20459251815541       -4.46064919741335       -1.15061064862945
H            1.73830389889310       -3.88639066577211       -3.50735320386776
H            1.98474445095210       -1.57967185636548       -4.30295187206106
H            2.66200789649582        0.22432332969798       -2.74650741982423
