  86
       -132.98453051
 O          4.7587285530        3.7606956276        0.0088166094
 C          4.3021556541        2.5835828508        0.0319397898
 C          5.1800481295        1.4248544906        0.0501621175
 C          6.5695034644        1.6416109732        0.0703512994
 C          7.4443291333        0.5825078295        0.1142722049
 C          6.9608810235       -0.7194364307        0.1359189224
 C          5.5941520438       -0.9427978091        0.1114549530
 C          4.6951907864        0.1110046322        0.0659399349
 C          3.2219917502       -0.2119432977        0.0217409141
 C          2.3543869776        1.0191111356        0.0290040146
 C          0.9892949645        0.8450799387        0.0619381873
 C          0.1238369011        1.9407388448        0.0909993846
 N         -1.2586949522        1.6539640733        0.1744012550
 C         -2.1194297674        1.8940403803       -0.8745988981
 C         -1.7750675495        2.7794892770       -1.9011570200
 C         -2.6880568746        3.0889276620       -2.8866386672
 C         -3.9533667250        2.5214091465       -2.8693178266
 C         -4.2777787173        1.5929432194       -1.8934099934
 C         -3.3714784868        1.2552228324       -0.9030627405
 C         -3.5974249334        0.0945111539        0.0450368487
 C         -5.0708103343       -0.2020551256        0.2400137499
 C         -5.6092414807       -1.4685073977        0.0667365968
 C         -6.9594333400       -1.6911231291        0.2834036374
 C         -7.7840570089       -0.6542170099        0.6811366560
 C         -7.2507090739        0.6106555984        0.8699917284
 C         -5.9041818570        0.8333629352        0.6542122278
 C         -2.8442296251       -1.0750279683       -0.6057250030
 C         -1.8645274011       -1.7906067319        0.0691643016
 C         -1.1658522245       -2.8011314721       -0.5700671947
 C         -1.4376407543       -3.1158443460       -1.8883670900
 C         -2.4266037552       -2.4197793262       -2.5630041432
 C         -3.1198498775       -1.4063098398       -1.9282822495
 C         -2.9521759301        0.4184306395        1.3709646721
 C         -3.4456358195       -0.0510482169        2.5762321358
 C         -2.7512944349        0.1577118296        3.7567269774
 C         -1.5367109276        0.8284195724        3.7354845322
 C         -1.0309851899        1.3097612868        2.5471706177
 C         -1.7375587284        1.1210572674        1.3545459229
 C          0.6465363078        3.2382926099        0.0886149888
 C          2.0011518746        3.4225713408        0.0422550772
 C          2.8919536592        2.3198265552        0.0313018170
 C          2.8340221023       -1.1307187034        1.1632122285
 C          2.8585017704       -0.8634531947        2.5139529305
 C          2.4411058505       -1.8539546724        3.3934049722
 C          2.0158403445       -3.0870704709        2.9227186042
 C          1.9921094535       -3.3602802941        1.5638168247
 C          2.3976612401       -2.3728624414        0.6811098631
 C          2.4558186444       -2.3486711637       -0.7726337214
 C          2.1426139424       -3.3139241793       -1.7147557654
 C          2.2813059727       -2.9998409534       -3.0573915500
 C          2.7276242764       -1.7481027031       -3.4531604719
 C          3.0545021851       -0.7799659054       -2.5127222116
 C          2.9162667804       -1.0879744261       -1.1776620449
 H          6.9208887855        2.6614851896        0.0550872362
 H          8.5084862378        0.7673304023        0.1327802566
 H          7.6425919057       -1.5557460630        0.1688394401
 H          5.2144553866       -1.9539720607        0.1236655308
 H          0.5689315529       -0.1507660406        0.0610924450
 H         -0.7908033885        3.2168628061       -1.9169303706
 H         -2.4136524824        3.7784603536       -3.6700466126
 H         -4.6750482480        2.7772326201       -3.6294054200
 H         -5.2474940856        1.1185340201       -1.9089029642
 H         -4.9748309179       -2.2879515218       -0.2356766053
 H         -7.3651073294       -2.6820543252        0.1421450076
 H         -8.8359878511       -0.8299858477        0.8483367624
 H         -7.8851862814        1.4245857504        1.1881678683
 H         -5.4877764833        1.8191129358        0.8067693645
 H         -1.6369452565       -1.5737605078        1.1015576819
 H         -0.4015215937       -3.3353341357       -0.0279530664
 H         -0.8846942984       -3.8963469097       -2.3880681294
 H         -2.6552231048       -2.6611477523       -3.5906114231
 H         -3.8835995555       -0.8662640976       -2.4666023130
 H         -4.3746258119       -0.5999013235        2.5894853465
 H         -3.1499157103       -0.2145702692        4.6875284371
 H         -0.9857410699        0.9816969961        4.6506133690
 H         -0.0942364802        1.8429939536        2.5262392730
 H         -0.0207902002        4.0853071834        0.1532692341
 H          2.4394679127        4.4082559342        0.0461165596
 H          3.1963329484        0.0955248450        2.8787371006
 H          2.4520349292       -1.6641316280        4.4565128663
 H          1.7006735916       -3.8449910125        3.6249436814
 H          1.6669717116       -4.3266777009        1.2057985116
 H          1.8028099459       -4.2937413183       -1.4125256208
 H          2.0424040836       -3.7400067097       -3.8071331654
 H          2.8263539566       -1.5251084799       -4.5052394003
 H          3.4104067263        0.1927045483       -2.8192532458
