86
 energy: -133.031237839907 gnorm: 0.000040067973 xtb: 6.7.1 (edcfbbe)
O            3.91082553024995        3.99109368663338        0.21753452702114
C            3.73166378752902        2.73183063271549        0.18031203292431
C            4.81764479895655        1.81739693661746       -0.09987131181757
C            6.10083556887544        2.34419236300150       -0.34343640302910
C            7.15969470321088        1.52023933495983       -0.63921732461973
C            6.97359558915362        0.14386224583923       -0.69797109602543
C            5.71648928791226       -0.38729569239140       -0.45642905594269
C            4.63584276278026        0.42530923584636       -0.15424520965116
C            3.29845690748254       -0.22480594639359        0.10057696415234
C            2.21209337864435        0.76215605486065        0.44883356680206
C            0.95474229917929        0.27559310931890        0.71934840061347
C           -0.11766132321308        1.12161585424775        1.06629896153507
N           -1.37431882734121        0.60632633917980        1.31733884298663
C           -2.49532313194097        1.40188787525627        1.58479703669662
C           -2.48858382590061        2.36949291442806        2.58822779316839
C           -3.62953327167366        3.10764921913914        2.83635894895958
C           -4.77823592327491        2.88263778344699        2.09351415751406
C           -4.79636639782404        1.89773707098479        1.11718666739796
C           -3.66973692769604        1.13447102236918        0.86645045544729
C           -3.57310214268082        0.06112662948606       -0.20648779370386
C           -4.94244330202649       -0.38641581678436       -0.68488934526701
C           -5.30613886356327       -0.36670076806276       -2.02352532153188
C           -6.56573256782612       -0.79226736355292       -2.41493067691396
C           -7.47436589470284       -1.24641329202028       -1.47582806776015
C           -7.11515532256153       -1.27972297870386       -0.13773373973571
C           -5.85904531610948       -0.85570747101265        0.25360816729532
C           -2.73363098550933        0.65406342002740       -1.34033896649625
C           -1.71380468435790       -0.06670521837628       -1.94677886361484
C           -0.95139912283139        0.50490247863639       -2.95122797337339
C           -1.19957744471194        1.80094414968132       -3.36608708229991
C           -2.22707788272238        2.52032000000184       -2.77863747298650
C           -2.98762429379435        1.95136779931924       -1.77364470317480
C           -2.82277433206764       -1.08959277049877        0.43828389605808
C           -3.16210813912407       -2.42366106480423        0.29520532465925
C           -2.42317000122793       -3.41034337075356        0.93025045892129
C           -1.34564263165384       -3.06754081923688        1.73201442811760
C           -0.97814776925315       -1.74282823722826        1.87056997911191
C           -1.69190085594369       -0.75396002040756        1.19649039069642
C            0.11171706900298        2.51486882442726        1.04302629472689
C            1.35641452843137        3.00717965920542        0.77551426042847
C            2.44672944185853        2.15469553520502        0.46886984088057
C            3.40856656985021       -1.27869151815233        1.18867914180290
C            3.78135102327025       -1.10731746610563        2.50394991963898
C            3.81235439670935       -2.22032265900583        3.33480915641695
C            3.47576367182411       -3.47625583784579        2.85163197593026
C            3.10165315582339       -3.65289407294528        1.52852004272441
C            3.06639522700888       -2.54612745217929        0.69573478827721
C            2.73062736701578       -2.41759332528314       -0.71498895423204
C            2.33730122772682       -3.36280252724155       -1.64849597013432
C            2.10409308928667       -2.95119197352914       -2.95135106586468
C            2.26251777399694       -1.62261910875542       -3.31685605167889
C            2.64635154606232       -0.66805965481464       -2.38311124411465
C            2.87516101156464       -1.07294140780543       -1.08644059265204
H            6.21867475202609        3.41746091770625       -0.29410711317999
H            8.13546241461046        1.94545378153270       -0.82695743564426
H            7.80121079743563       -0.51048240833018       -0.92736023707223
H            5.57135335446615       -1.45797354975133       -0.50076382681838
H            0.79164953679910       -0.78624601988020        0.63047801715132
H           -1.60024630295253        2.51265998561517        3.18438164415664
H           -3.62317804992633        3.85479687541200        3.61510292797092
H           -5.66625108781417        3.46680727656427        2.27957403726168
H           -5.69557788262297        1.72703934595579        0.54510633359849
H           -4.60753413715568       -0.01966363167331       -2.76977715756259
H           -6.83402270954149       -0.76840273506906       -3.46120011880228
H           -8.45613037209485       -1.57524155241338       -1.78360852864902
H           -7.81511621048444       -1.63834405134198        0.60286022637548
H           -5.58183688134555       -0.88886861795046        1.29772003198779
H           -1.50476422162662       -1.08112352661655       -1.64077593276214
H           -0.15572149341565       -0.06861019486542       -3.40201691818512
H           -0.59885257082700        2.24770564821157       -4.14470163471980
H           -2.43501869648728        3.53023385674635       -3.10098730424059
H           -3.78671639440693        2.52093473237739       -1.32237701330444
H           -4.00633114733355       -2.69639732998194       -0.31890280608144
H           -2.70124734251416       -4.44611098119413        0.81030284526614
H           -0.79362749382301       -3.83080547411595        2.25825453743354
H           -0.16453285155098       -1.46532285984693        2.52295259899279
H           -0.70346341687832        3.20320965744864        1.19759579521550
H            1.54126436826471        4.07090649133547        0.75141576552801
H            4.04861289662626       -0.12892907031468        2.87751435257359
H            4.10538216930125       -2.10529790721690        4.36825135828829
H            3.51038460015912       -4.32795644390033        3.51566386476816
H            2.84413518896807       -4.63311168630921        1.15572171497895
H            2.22008761279821       -4.39955484845701       -1.37018973130721
H            1.80081871785259       -3.67463267128424       -3.69437392435385
H            2.08882855449273       -1.32672837524211       -4.34171919522636
H            2.76784028426887        0.36812671284534       -2.66556632017429
