  86
       -133.06965369
 O          3.7249282613        4.0008790821       -0.2314945391
 C          3.5731406964        2.7887648215       -0.1373637778
 C          4.6831978141        1.8482349280       -0.4146552587
 C          5.9307274312        2.3787920597       -0.7496009523
 C          7.0033636385        1.5551980120       -1.0132629828
 C          6.8412651558        0.1782873634       -0.9441855536
 C          5.6117416778       -0.3578575164       -0.6149319347
 C          4.5226807744        0.4649987205       -0.3472229153
 C          3.2074185559       -0.1758331230       -0.0112865290
 C          2.1081626200        0.8046308151        0.3094484327
 C          0.8821172613        0.2936979508        0.6873468567
 C         -0.1729894401        1.1204094110        1.0753149031
 N         -1.3731187398        0.5790715342        1.4759213610
 C         -2.5259963133        1.3533954351        1.7160331743
 C         -2.5663832479        2.3070293698        2.7236004169
 C         -3.7358903003        3.0095732457        2.9543503720
 C         -4.8627047781        2.7510727397        2.1927986974
 C         -4.8293284043        1.7837447196        1.2011065858
 C         -3.6666216275        1.0725099140        0.9601196155
 C         -3.4891474944        0.0277952821       -0.1303723605
 C         -4.8120561964       -0.3984757588       -0.7266777026
 C         -5.0924362980       -0.2676618798       -2.0788150267
 C         -6.3171822801       -0.6728296362       -2.5839164867
 C         -7.2754442163       -1.2131161027       -1.7455185633
 C         -7.0031602670       -1.3488345303       -0.3937393184
 C         -5.7815128198       -0.9452768620        0.1106994583
 C         -2.5450898137        0.6230416805       -1.1743005441
 C         -1.6262521636       -0.1762742996       -1.8417369154
 C         -0.7424504625        0.3773557016       -2.7501998096
 C         -0.7634870528        1.7370933533       -3.0048348075
 C         -1.6933546996        2.5367098492       -2.3634382710
 C         -2.5804580085        1.9830915359       -1.4583867424
 C         -2.7717318409       -1.1333438638        0.5389252765
 C         -3.1008812876       -2.4686387768        0.3793638504
 C         -2.3541395574       -3.4515903289        1.0086427912
 C         -1.2849056611       -3.1056034890        1.8170903105
 C         -0.9460208275       -1.7752601169        1.9881932765
 C         -1.6704341189       -0.7922172745        1.3271040093
 C          0.0142767303        2.5090789976        0.9923092575
 C          1.2210552356        3.0164955824        0.5861627159
 C          2.3005840907        2.1863022335        0.2594179758
 C          3.3306752277       -1.1434546445        1.1512113532
 C          3.7317427494       -0.8751884204        2.4408932749
 C          3.7198294154       -1.9108755263        3.3664120040
 C          3.3059334296       -3.1834888751        3.0024503062
 C          2.9020407969       -3.4566680621        1.7049976428
 C          2.9182207392       -2.4297560277        0.7757581079
 C          2.5728904082       -2.4085441111       -0.6374129691
 C          2.1450888598       -3.4146320667       -1.4874418549
 C          1.9313811011       -3.1084508939       -2.8221632424
 C          2.1421089030       -1.8239769783       -3.3003850606
 C          2.5555520879       -0.8063040706       -2.4495252426
 C          2.7632134182       -1.1069600179       -1.1225998469
 H          6.0237780688        3.4536073698       -0.7938625155
 H          7.9626813491        1.9772223440       -1.2725760331
 H          7.6756047221       -0.4760774500       -1.1494141475
 H          5.4851827097       -1.4296115728       -0.5639269687
 H          0.7431549702       -0.7745411383        0.6688851859
 H         -1.6874366287        2.4886192245        3.3234884527
 H         -3.7672946121        3.7554401574        3.7339987532
 H         -5.7728437536        3.3036671490        2.3697003184
 H         -5.7092913059        1.5942669584        0.6055066950
 H         -4.3531333366        0.1517600087       -2.7441005871
 H         -6.5207880648       -0.5640987907       -3.6390652139
 H         -8.2295083816       -1.5276480903       -2.1412836943
 H         -7.7449728831       -1.7701434162        0.2688201781
 H         -5.5704606228       -1.0535652022        1.1650816916
 H         -1.5920636939       -1.2384701401       -1.6498909705
 H         -0.0306883567       -0.2593013726       -3.2517166775
 H         -0.0640034027        2.1713515824       -3.7035242276
 H         -1.7254597112        3.5975754477       -2.5638201954
 H         -3.3024662064        2.6163199946       -0.9646626859
 H         -3.9328731187       -2.7456398531       -0.2499345249
 H         -2.6130539557       -4.4901954358        0.8689340878
 H         -0.7135099243       -3.8700534710        2.3214286761
 H         -0.1259388658       -1.4987680817        2.6334622478
 H         -0.7976207360        3.1795076836        1.2210149332
 H          1.3707740790        4.0829806748        0.5123559456
 H          4.0476128937        0.1181042349        2.7248804026
 H          4.0338330446       -1.7219238345        4.3822332471
 H          3.3004961807       -3.9718799696        3.7407931451
 H          2.5818580394       -4.4494893920        1.4256736625
 H          1.9885256037       -4.4185804258       -1.1218258857
 H          1.6036393111       -3.8816709028       -3.5014614030
 H          1.9848699861       -1.6140207912       -4.3486658344
 H          2.7131859017        0.1967113517       -2.8179283705
