85
 energy: -121.157233381947 gnorm: 0.000102058774 xtb: 6.7.1 (edcfbbe)
C            2.33002610701073       -0.92435747182453        2.08696005847881
C            3.70514206682338       -0.69115028234352        1.47212253000386
C            3.74819825470497       -1.17308044428896        0.02435882259024
C            5.12926025135542       -1.07579755921543       -0.62465529248723
C            5.69657944225788        0.33992475172686       -0.76088741880103
C            4.84519909458186        1.27046687852685       -1.64541472820835
N            3.95182563247918        2.11116925566338       -0.87320665101345
C            2.57118001795678        1.92213561403043       -0.89019766601450
C            1.89621338441971        1.25363771811782       -1.84055910748822
C            0.42394418912281        0.99108930155124       -1.77741094305743
C           -0.15796028155830        1.14535809092067       -0.39765294874079
C           -1.26397224522595        0.51773561919255        0.02530106466887
C           -2.04616694076314       -0.51247931884350       -0.73460027856681
C           -3.51941393275364       -0.48489924840653       -0.41788661133478
C           -4.41042326236653        0.55066828212656       -0.58137709296039
C           -5.74704131409907        0.36770532440013       -0.21698960472371
C           -6.71397623464594        1.46546455721144       -0.37073769356620
C           -7.99708901383097        1.22541558815781       -0.85862498899541
C           -8.90365917538203        2.26028562524276       -0.99757669052576
C           -8.54642716692137        3.55203259341686       -0.64723280835470
C           -7.27418495332175        3.80257070269354       -0.15987293005806
C           -6.36459849483007        2.76988107018246       -0.02584601404417
C           -6.15332377205862       -0.86197673941131        0.30366952211887
C           -5.25986022148392       -1.90362575777796        0.47764247500993
C           -3.93448659062700       -1.71427663045879        0.11835406971884
C           -2.78275545317386       -2.59448569921680        0.19896111031214
C           -2.65123763111442       -3.89129296505393        0.67177017696971
C           -1.40062202828041       -4.48242938975793        0.65954349023626
C           -0.27988518177745       -3.80316078241783        0.18012595024789
C            1.04172539767730       -4.44919126470669        0.18416455351406
C            1.47664405419479       -5.17547110555332        1.29092728176472
C            2.72316837974140       -5.77430441198580        1.29592950756660
C            3.55233506858007       -5.66748252094644        0.19132292702195
C            3.12807412888350       -4.95345360044429       -0.91719918277389
C            1.88652409256580       -4.34395920621289       -0.91902553352829
C           -0.41962518094552       -2.49997327781375       -0.30296575960563
C           -1.66201197594881       -1.90895259389463       -0.29472673652999
C            0.53849732883835        2.06209007555396        0.46945098987147
C            1.80596181968763        2.45562318060181        0.23602461178816
O            2.36358017425024        3.34649216800565        1.10286606617511
C            3.67676782892389        3.69290033662774        0.92941201047354
C            4.17392122590899        4.67659775753860        1.76932011747009
C            5.49966940600244        5.06133280017711        1.68504364740556
C            6.32166849589774        4.44914913128219        0.75524192101348
C            5.82933074044621        3.46852187126846       -0.08653013956594
C            4.49226292324522        3.06869495830102       -0.02804157626266
H            2.30503999554579       -0.57714309716427        3.11803821172849
H            1.56696418973924       -0.38712898332447        1.52663230496047
H            2.08104066383130       -1.98371299987692        2.07303821591304
H            4.46057818323536       -1.22371331628640        2.05576137956905
H            3.93859009185884        0.37453369760096        1.52191715142335
H            3.02059869419064       -0.60534560240881       -0.55773274216245
H            3.43702247282885       -2.22085489347719        0.00343249749842
H            5.83409793771148       -1.66780867771950       -0.03527869394918
H            5.07566039473380       -1.52696097163859       -1.61896724370960
H            5.81293244641019        0.78440890354899        0.22788386916878
H            6.69349168264078        0.25716805896815       -1.19905119490650
H            4.25540892848660        0.66311626862903       -2.32640141716429
H            5.48833481463841        1.91077406544253       -2.25699792226167
H            2.38239325221528        0.87824503952290       -2.72682330870545
H            0.23291677158163       -0.00970587642517       -2.16971901361648
H           -0.08893529168086        1.69546224891682       -2.45001712874212
H           -1.61815774728715        0.70186592177191        1.03093454221832
H           -1.89237102407294       -0.39074818952301       -1.81087759139070
H           -4.08678778159847        1.49215549652389       -1.00171775333818
H           -8.27752526484119        0.22277761127417       -1.14842396348308
H           -9.89324086497565        2.05931077382828       -1.38292247399714
H           -9.25629243450027        4.35957251421077       -0.75300299868324
H           -6.99034366734100        4.80752350705025        0.11910865713584
H           -5.37906693911831        2.96934627758889        0.37013285763779
H           -7.18459944062828       -0.99123401472924        0.59953762673688
H           -5.59199051779915       -2.84437251509290        0.89201611781162
H           -3.50742898847035       -4.43209091493867        1.04782480200508
H           -1.28740873996736       -5.49678287201086        1.01494970021487
H            0.83983982877805       -5.25044449983246        2.16100714285009
H            3.04988309746558       -6.32632951821871        2.16582711060524
H            4.52447441584153       -6.13867836288373        0.19460892861378
H            3.76842647495175       -4.87095695400305       -1.78382997006007
H            1.55684631627959       -3.79615968122737       -1.79008785330457
H            0.44998227272287       -1.95818825938319       -0.64370010853125
H            0.04393105011561        2.40962464665901        1.36412040044535
H            3.50081263434620        5.11912428852684        2.48746328862979
H            5.88312688093753        5.82594374687795        2.34231376155743
H            7.36030323856229        4.73418513419552        0.67976891912375
H            6.50109774759616        3.01433240941231       -0.79449374094051
