85
 energy: -121.157935803623 gnorm: 0.000033114444 xtb: 6.7.1 (edcfbbe)
C            4.09635192199555        2.57428979765729        1.94445189013928
C            4.87664961186576        1.39858326141971        1.36614833922395
C            4.02684603941109        0.59595680751578        0.38317379214790
C            4.77872394807828       -0.54735178750740       -0.30139099603293
C            5.32241946111904       -1.63294191709310        0.63103399234425
C            4.23581521695423       -2.35251207797851        1.44299772685830
N            3.23002421564162       -2.96129251042107        0.59587434297578
C            1.95201547161156       -2.41030124200514        0.49138923028023
C            1.36575391924591       -1.66090519052232        1.43981553965174
C            0.02600800967712       -1.01387365251311        1.29204118900305
C           -0.55230328137884       -1.07520610339976       -0.09763480376688
C           -1.60626369394579       -0.34023114766613       -0.48389240309570
C           -2.32118764342883        0.68274623304387        0.34765326560956
C           -3.81577614009364        0.66227120005841        0.14689445766487
C           -4.69398601563783       -0.37453819967749        0.36378522363365
C           -6.05369985406859       -0.18615760536208        0.10184917970764
C           -7.01054081054856       -1.28136552208775        0.32315422008955
C           -6.91799485439308       -2.08879940076717        1.45532152743820
C           -7.81977363928618       -3.11574651872896        1.66527432844141
C           -8.82679181885643       -3.35819742504844        0.74553287593962
C           -8.92697772422733       -2.56444061090859       -0.38529933114788
C           -8.02905298635739       -1.53382100809390       -0.59400723406994
C           -6.49559389352273        1.05118626647172       -0.36963739339720
C           -5.61733348778992        2.09750881145700       -0.58692289880767
C           -4.26890483665920        1.90213523417236       -0.33146482719108
C           -3.12585321123449        2.78503542744077       -0.47903096565499
C           -3.02854041692295        4.09550976063955       -0.92146722591217
C           -1.78028897317011        4.68900522818474       -0.98181329484204
C           -0.62554105264049        3.99465173161034       -0.61815069291761
C            0.69467805324602        4.63554701572998       -0.71824440278066
C            0.88456019870942        5.95381817149910       -0.30893828926700
C            2.12873364574757        6.54980170575257       -0.40590432021547
C            3.20269383761224        5.84203627373465       -0.92017640126575
C            3.02500960304948        4.53161478395637       -1.33306429948844
C            1.78332069769168        3.93179574894472       -1.23019516101295
C           -0.73094867499770        2.67652212515815       -0.16731753626150
C           -1.97149965084604        2.08696978723646       -0.09203213381338
C            0.05641263274692       -2.00649325150300       -1.00906999251767
C            1.20572250445104       -2.65779742524163       -0.73905316439744
O            1.66150133558565       -3.54504658829184       -1.66967921643007
C            2.79123794040593       -4.26643502897643       -1.38594632554852
C            3.11825902504872       -5.28470185697879       -2.26705551183362
C            4.25673393672131       -6.04335169686618       -2.06314487080546
C            5.05887751628149       -5.77833269445245       -0.96688242359209
C            4.73534445104968       -4.76353106164763       -0.08497843007360
C            3.59600737509709       -3.97906298539943       -0.27271215098865
H            4.71517565311611        3.14322717823832        2.63521922902243
H            3.76344388407693        3.24186788799885        1.15214250005544
H            3.21808010249475        2.22223303409421        2.48243799831999
H            5.20772897372697        0.75675169241329        2.18461320849716
H            5.76689648386882        1.77099063588760        0.85341110083270
H            3.66645062905371        1.27338188181144       -0.39523211058062
H            3.14734536724798        0.20424092892397        0.89657169119501
H            4.10874402917710       -1.01103056562623       -1.03070511173804
H            5.62146307796229       -0.13040637703226       -0.85881816455338
H            5.86013493705160       -2.36075152055458        0.02016845497187
H            6.03532352476911       -1.19848772855134        1.33264208103960
H            3.75036780388331       -1.63256314727913        2.09498251109563
H            4.69280533269641       -3.11512344823112        2.08092040742309
H            1.83752768818593       -1.48944803182884        2.39497346417614
H            0.11078181112647        0.02719215357589        1.61902781876268
H           -0.67263832482906       -1.49918343224595        1.98890745373923
H           -1.97711472228908       -0.43978532123953       -1.49514401566440
H           -2.08361527847785        0.54325001885227        1.40618134378896
H           -4.33588251683735       -1.33397427774900        0.70891784384799
H           -6.14482828216467       -1.89546714066977        2.18499183703620
H           -7.73849545774560       -3.72899098382924        2.55159628172414
H           -9.53000353930926       -4.16198037465945        0.90889152370002
H           -9.70778602395023       -2.75106436056380       -1.10895661042200
H           -8.10293038507441       -0.92942796047284       -1.48683412978283
H           -7.55098100782730        1.19714213023217       -0.55023335536752
H           -5.97990758180183        3.04861721781710       -0.94882382179182
H           -3.90918974789239        4.64457354616098       -1.22142098523105
H           -1.69064802959363        5.70304238343189       -1.34453660284577
H            0.05421053277723        6.50702137001221        0.10609821960246
H            2.26188672118248        7.57126384607838       -0.07888580480088
H            4.17377029190374        6.30905496481186       -0.99844655916347
H            3.85823191002849        3.97608553028893       -1.74005743930052
H            1.64616314424730        2.91412413688621       -1.56734788387832
H            0.15591729411462        2.13495623679335        0.12644110090845
H           -0.42334187190598       -2.18105911307816       -1.96079818657480
H            2.46764170009074       -5.45708907784436       -3.11065014530260
H            4.51057592620073       -6.83220778345863       -2.75380926932195
H            5.94805573280401       -6.36529843907119       -0.79180619975008
H            5.37779230886647       -4.59023255286082        0.76208990229956
