  80
       -122.18024497
 C          7.2536435154       -2.9572110402        0.4227753810
 C          7.0612703056       -2.0889404662       -0.6395674597
 C          5.8989021983       -1.3483486190       -0.7324908253
 C          4.9065718154       -1.4630698884        0.2395867213
 C          3.6616059267       -0.6884520270        0.1404389310
 C          2.4448204637       -1.3521496426        0.3069043416
 C          1.2259102629       -0.6997661173        0.1817013333
 N          0.0579493572       -1.2971138097        0.4163284548
 C         -1.1006538633       -0.6623345609        0.2298412641
 N         -2.2781044578       -1.3551857083        0.5084175290
 C         -3.2696012546       -0.7516142179        1.2845204457
 C         -4.6183879670       -1.0446684962        1.0734868827
 C         -5.5886228177       -0.4189711430        1.8293655363
 C         -5.2386360027        0.5166959964        2.7910479356
 C         -3.9020687271        0.8105835051        3.0044665541
 C         -2.9229779523        0.1760860877        2.2657479424
 C         -2.3667055980       -2.6926671179        0.1129865305
 C         -1.6984282897       -3.1394143192       -1.0267738427
 C         -1.7681614442       -4.4663694410       -1.4022847857
 C         -2.5025219815       -5.3715304512       -0.6546497278
 C         -3.1537799291       -4.9373455710        0.4887975117
 C         -3.0859255925       -3.6141850201        0.8761154888
 C         -1.0996089075        0.6629597374       -0.2467773255
 N         -2.2756211238        1.3603378572       -0.5192334605
 C         -2.3569404294        2.6979837912       -0.1225116601
 C         -3.0776112068        3.6222253352       -0.8809563597
 C         -3.1378029764        4.9456286379       -0.4930633363
 C         -2.4775813094        5.3771223986        0.6462921828
 C         -1.7424240396        4.4690055688        1.3895102414
 C         -1.6802484699        3.1418328959        1.0134056033
 C         -3.2782273677        0.7578690125       -1.2815004090
 C         -4.6234289104        1.0570444508       -1.0567221897
 C         -5.6045517596        0.4293593473       -1.7967511802
 C         -5.2690721931       -0.5148719252       -2.7551596892
 C         -3.9359754764       -0.8138055577       -2.9832426949
 C         -2.9462252857       -0.1765151714       -2.2614917333
 N          0.0603328584        1.2947208815       -0.4360967102
 C          1.2271486269        0.6957494449       -0.1998188084
 C          2.4472537139        1.3465620584       -0.3219770029
 C          3.6627002796        0.6817522877       -0.1503478049
 C          4.9086409950        1.4558171762       -0.2422721048
 C          5.8936475180        1.3429412591        0.7374564166
 C          7.0567696130        2.0832717330        0.6517148872
 C          7.2573602065        2.9488490681       -0.4112888422
 C          6.2802155601        3.0769376266       -1.3841978408
 C          5.1131462033        2.3411479430       -1.2983325788
 C          5.1030406878       -2.3509048341        1.2951319387
 C          6.2691002614       -3.0874624896        1.3878573772
 H          8.1654069469       -3.5314362212        0.4966233637
 H          7.8216460499       -1.9899633109       -1.4006897095
 H          5.7492094063       -0.6816878895       -1.5684254930
 H          2.4295956880       -2.4128962720        0.5032548714
 H         -4.8953206188       -1.7486852918        0.3036832260
 H         -6.6284649170       -0.6529490286        1.6568604231
 H         -6.0025863174        1.0113683403        3.3709853443
 H         -3.6186619506        1.5319556432        3.7562767939
 H         -1.8796634991        0.3798087398        2.4542924916
 H         -1.1214219894       -2.4468208843       -1.6177483300
 H         -1.2471066925       -4.7947900087       -2.2893713560
 H         -2.5596743650       -6.4067545792       -0.9540141419
 H         -3.7116628562       -5.6378894115        1.0925779400
 H         -3.5724845802       -3.2927930930        1.7844596272
 H         -3.5706206433        3.3026950883       -1.7865660256
 H         -3.6961772423        5.6486791722       -1.0934453526
 H         -2.5287732717        6.4125444620        0.9460771434
 H         -1.2144816543        4.7952247552        2.2733175704
 H         -1.1030766174        2.4467171233        1.6011237279
 H         -4.8891051461        1.7666715709       -0.2880794041
 H         -6.6416637659        0.6663375507       -1.6119392470
 H         -6.0415573546       -1.0130674421       -3.3204427275
 H         -3.6638955458       -1.5407680347       -3.7337876979
 H         -1.9058184665       -0.3842735818       -2.4615766351
 H          2.4340358244        2.4073035477       -0.5185494904
 H          5.7376034189        0.6778646530        1.5735380631
 H          7.8112557668        1.9861489396        1.4189225232
 H          8.1693864124        3.5233742067       -0.4790937557
 H          6.4294480449        3.7523931900       -2.2143597971
 H          4.3577650129        2.4335677338       -2.0655669091
 H          4.3422449102       -2.4446165017        2.0568581140
 H          6.4125359604       -3.7637993712        2.2183973481
