80
 energy: -122.229974395606 gnorm: 0.000089906800 xtb: 6.7.1 (edcfbbe)
C            7.23827175720469       -2.98440371766962        0.35863166081031
C            7.04748293884266       -2.09860513972861       -0.68964697340072
C            5.89097682646048       -1.34545611625226       -0.76417308308873
C            4.90307446240738       -1.46568030896331        0.21185464225561
C            3.65855335965205       -0.68529220293221        0.12959955746777
C            2.44170962120594       -1.35419798753714        0.27843423672527
C            1.22095843453222       -0.70033137048210        0.17116502367790
N            0.05427010763014       -1.31430982992838        0.39041059914450
C           -1.10294487941467       -0.66967921544182        0.21649217389556
N           -2.28553182718029       -1.36211535248272        0.47434181743126
C           -3.24706487734355       -0.78902815472011        1.31351781658934
C           -4.60655865509719       -1.03286983713204        1.10988184085050
C           -5.54571745843239       -0.45111979048976        1.93817206580800
C           -5.15180199920373        0.38993959308013        2.96796642634218
C           -3.80391739134413        0.63509482734787        3.17457801684782
C           -2.85649126256400        0.04657771534723        2.35924414910348
C           -2.39097195409233       -2.68346629254872        0.02949952429725
C           -1.73421831291405       -3.08960926226663       -1.13239750789479
C           -1.81328600558248       -4.40062206023943       -1.55975190216043
C           -2.54729236084405       -5.33036858764552       -0.84166802200248
C           -3.19071069366835       -4.93678426994333        0.32117193908512
C           -3.11344888019999       -3.62970552394367        0.75958968174531
C           -1.10414839475527        0.66695949580336       -0.21720885279567
N           -2.28792023386929        1.35695334761485       -0.47597827358625
C           -2.39605131896659        2.67850669246509       -0.03239661245560
C           -3.11997969458183        3.62263867435678       -0.76377734843529
C           -3.19976645188528        4.93004721330044       -0.32680898184723
C           -2.55764744581821        5.32599475827576        0.83594940283856
C           -1.82240272748785        4.39830397764569        1.55542964271209
C           -1.74073060662050        3.08698432495930        1.12948214591779
C           -3.24793549462476        0.78161258333697       -1.31539573242992
C           -4.60800188002145        1.02246222867575       -1.11209490546863
C           -5.54566889064249        0.43845508701095       -1.94049303702679
C           -5.14961653356022       -0.40187855221315       -2.97006266491651
C           -3.80113721023459       -0.64393587021794       -3.17643062918655
C           -2.85522177246192       -0.05312040593104       -2.36099628404277
N            0.05187536614002        1.31391790123048       -0.39027193086818
C            1.21966183655474        0.70228168861463       -0.17029111271660
C            2.43916277551636        1.35855369195863       -0.27697195927521
C            3.65726410677766        0.69201702789008       -0.12772355573008
C            4.90029591861224        1.47479117895138       -0.20975727522536
C            5.88840598608005        1.35639295651704        0.76629131166374
C            7.04341964043262        2.11185385927008        0.69189444802136
C            7.23256004750988        2.99805834209581       -0.35633467987216
C            6.25315150061494        3.13038834636949       -1.32691820532983
C            5.09461715415351        2.37944416550284       -1.25207664950712
C            5.09907300265442       -2.36990843483354        1.25422598273904
C            6.25905308985028       -3.11862113193896        1.32914410352491
H            8.14431245401420       -3.56951166275633        0.41718585657248
H            7.80323386716014       -1.99499744319521       -1.45491902001474
H            5.74272598976063       -0.66408873845476       -1.58917015143735
H            2.42753192312060       -2.42025195648151        0.44901347259757
H           -4.91409136125209       -1.67005130528732        0.29468860815930
H           -6.59388337586716       -0.64758659472798        1.77117422458004
H           -5.88989473374750        0.84905608806123        3.60718182308616
H           -3.48581048342092        1.28068957193868        3.97943101071033
H           -1.80289168688064        0.21073375292928        2.53674609200669
H           -1.16049137383089       -2.37366767385746       -1.70016510576974
H           -1.29966673145870       -4.69507117059876       -2.46304158035417
H           -2.61145966493873       -6.35278296196396       -1.18063985281608
H           -3.74984807918797       -5.65629107791116        0.90058707555614
H           -3.59382038219722       -3.34106137689760        1.68231448293910
H           -3.59928102685970        3.33213542242098       -1.68647912963775
H           -3.75987017002032        5.64794720553717       -0.90728638337332
H           -2.62375179415679        6.34866970420971        1.17376699522995
H           -1.30987871479172        4.69461310057517        2.45873249359505
H           -1.16623282107956        2.37259529741632        1.69843257270182
H           -4.91710188942800        1.65901576395672       -0.29699746730595
H           -6.59431643819647        0.63256447447565       -1.77376652636629
H           -5.88652174578083       -0.86264342205623       -3.60946561142031
H           -3.48138634470019       -1.28868784473532       -3.98131376749431
H           -1.80120294997730       -0.21472206265188       -2.53835805444375
H            2.42296320529901        2.42458507672811       -0.44750965526470
H            5.74144226438058        0.67471274261534        1.59125999693832
H            7.79937362935536        2.00960106977136        1.45714919994374
H            8.13750454014738        3.58486951269740       -0.41485102529225
H            6.39265086056128        3.82111327448697       -2.14632791415617
H            4.33677899875971        2.47507097027271       -2.01717606263730
H            4.34139286000932       -2.46693426434279        2.01930364230013
H            6.39989858592098       -3.80898067075709        2.14861786055624
