80
 energy: -122.298954513139 gnorm: 0.000053794596 xtb: 6.7.1 (edcfbbe)
C            7.22164002851054       -2.94750810631740       -0.04411849241293
C            6.26596312777821       -3.17178865960112       -1.02108401000206
C            5.08952005057637       -2.44445417140694       -1.02181807578251
C            4.85789299334049       -1.47303872150289       -0.05150204790238
C            3.59705029832411       -0.70826443416324       -0.05116220454500
C            2.40154894121087       -1.38955381997339       -0.11920787811992
C            1.17994967159105       -0.70424029023942       -0.07442620414357
N            0.01298731739066       -1.37309203951204       -0.22127680210155
C           -1.11161600559765       -0.70609371535609       -0.15938221811090
N           -2.27110348638918       -1.41195378415747       -0.41991176287064
C           -2.26621293221414       -2.81206354361475       -0.22996510805107
C           -2.76990360861887       -3.66263102994077       -1.20955502914157
C           -2.78528925048420       -5.02973617989756       -1.00239534917422
C           -2.29161924169577       -5.56503717917774        0.17539538911172
C           -1.77936066479280       -4.72147446027387        1.14757225200724
C           -1.76781989639077       -3.35372758338080        0.95058984579345
C           -3.31173071466444       -0.83553181581113       -1.16508828126134
C           -3.04648520022151        0.12429793629635       -2.13832166924257
C           -4.08179752175003        0.69014156533165       -2.85936868329537
C           -5.38808114931999        0.28948067655667       -2.63637128229111
C           -5.65412163190448       -0.68442939733382       -1.68651072456733
C           -4.62778180747799       -1.24148454644560       -0.94984922403533
C           -1.11159485915465        0.70615832779684        0.15941435161866
N           -2.27107280461950        1.41205504805738        0.41989859311748
C           -2.26616397406611        2.81215785948047        0.22993259264990
C           -1.76756826789919        3.35381740277417       -0.95054027326097
C           -1.77908585389923        4.72156154238951       -1.14753971387301
C           -2.29152828125087        5.56513227113538       -0.17546713080708
C           -2.78540750998846        5.02983798600106        1.00223827530352
C           -2.77003829993086        3.66273622858862        1.20941997078859
C           -3.31172826687277        0.83563510513651        1.16504210219593
C           -3.04649725001784       -0.12414306124152        2.13833004417687
C           -4.08182537835478       -0.68999627446401        2.85934671373359
C           -5.38811242851214       -0.28939521416930        2.63626184824993
C           -5.65414013637429        0.68446396301629        1.68634565636492
C           -4.62778277303592        1.24152739095209        0.94971426847114
N            0.01303151931148        1.37311140676037        0.22135495869160
C            1.17997327549794        0.70421798577612        0.07452989858045
C            2.40159425530266        1.38949191677495        0.11932137598955
C            3.59707372893559        0.70816428889316        0.05127459236744
C            4.85794158103842        1.47289707857971        0.05160561296841
C            5.08960343231702        2.44431441892304        1.02191234247570
C            6.26606790778953        3.17161469385130        1.02116410928804
C            7.22173332894633        2.94729605723547        0.04419562612817
C            6.99188491155376        1.99564078385335       -0.93593278459623
C            5.82015927814362        1.26179350521597       -0.93272982021121
C            5.82012259921026       -1.26197269227361        0.93282957210637
C            6.99182424634934       -1.99585751434273        0.93602104942722
H            8.14054593492190       -3.51501526514867       -0.04431471383901
H            6.43738165052260       -3.91499033604162       -1.78643036350974
H            4.34748837431761       -2.61291550740830       -1.78974425959979
H            2.38048091888928       -2.46658181724191       -0.19661585215451
H           -3.14602781039059       -3.24932971996335       -2.13411842408675
H           -3.17818963420160       -5.67850100981959       -1.77107083969298
H           -2.30216288095595       -6.63258335581979        0.33405797550276
H           -1.38967963105770       -5.12905412258104        2.06869153838272
H           -1.36605779367887       -2.70031628586792        1.71006955640673
H           -2.02254810646224        0.41107901217024       -2.33715034759273
H           -3.86218249324357        1.43768294670989       -3.60723363590754
H           -6.19305050069524        0.72879767714789       -3.20497072694460
H           -6.66911366144695       -1.00657813897864       -1.51066432109064
H           -4.83268676271143       -1.98947498578133       -0.19889063778339
H           -1.36566447374641        2.70040621771889       -1.70994498427668
H           -1.38924355638480        5.12913280528206       -2.06859465994680
H           -2.30205487087911        6.63267619516836       -0.33414492494562
H           -3.17845223268827        5.67860668064314        1.77083687705869
H           -3.14631669408451        3.24944780410916        2.13392611830626
H           -2.02255779871732       -0.41087385574911        2.33722267209937
H           -3.86222150992500       -1.43749616626848        3.60725638275580
H           -6.19309509843632       -0.72871907340914        3.20483706342018
H           -6.66913516357149        1.00656611050834        1.51043159518238
H           -4.83267642290916        1.98947760470025        0.19871262468588
H            2.38055910265901        2.46652063945025        0.19672872722495
H            4.34758345365030        2.61280096417262        1.78984411326199
H            6.43752276487169        3.91480231049420        1.78651425106452
H            8.14066267357727        3.51476454630665        0.04439108013027
H            7.72911882346324        1.82273349476263       -1.70636608663999
H            5.64030608123194        0.52679880485142       -1.70360459417742
H            5.64030241638449       -0.52696851501072        1.70370344974935
H            7.72907060414165       -1.82297586387474        1.70644807514684
