  69
       -106.04349614
 C         -5.7235813977       -4.6492702837        0.2441719430
 C         -4.7489120408       -5.4587620963        0.8030414902
 C         -3.4128709943       -5.1224590303        0.6852014061
 C         -3.0293821707       -3.9676511378        0.0074654873
 C         -1.6111420256       -3.5958776034       -0.1110395283
 C         -0.6245826446       -4.5574236869       -0.3294638463
 C          0.7063705908       -4.1921469334       -0.4392853536
 C          1.0806298407       -2.8656012916       -0.3350367752
 C          0.1068308500       -1.8935182797       -0.1206631152
 C          0.4629919576       -0.4779991883       -0.0228262973
 N          1.7477201332       -0.1385523769       -0.0145193670
 C          2.0032617625        1.1644383344        0.0739780664
 C          3.4038638554        1.5867575003        0.0879349438
 C          3.7291476000        2.9400467010        0.1567957508
 C          5.0559179583        3.3248330113        0.1638066783
 C          6.0601804188        2.3741071030        0.1004668693
 C          5.7512324105        1.0159590278        0.0334121725
 C          6.8174392878        0.0041296362       -0.0295164929
 C          7.9452627030        0.2065887398       -0.8210840599
 C          8.9442349587       -0.7475147093       -0.8795463293
 C          8.8356028826       -1.9156684343       -0.1438887208
 C          7.7190597012       -2.1261540030        0.6480726611
 C          6.7161855760       -1.1763067936        0.7030464096
 C          4.4154470377        0.6337932127        0.0290314398
 N          1.0666958433        2.1066596444        0.1489396085
 C         -0.1906659807        1.6767918123        0.1264857171
 C         -1.2743464931        2.6571005796        0.1951865548
 C         -1.0088639145        4.0069042350        0.4117768003
 C         -2.0576294544        4.9048817041        0.4778741569
 C         -3.3639362782        4.4717369613        0.3260775950
 C         -3.6457289638        3.1236776202        0.1054731544
 C         -5.0279781327        2.6486672155       -0.0613328334
 C         -5.9559814494        3.3909380442       -0.7878450676
 C         -7.2497816413        2.9320714117       -0.9534260104
 C         -7.6389939986        1.7266062831       -0.3936475823
 C         -6.7251270098        0.9812453515        0.3326951308
 C         -5.4304154641        1.4367881139        0.4967200815
 C         -2.5880311921        2.2258033956        0.0431844034
 N         -0.5355887174        0.3960349272        0.0446830750
 C         -1.2288760074       -2.2646995584       -0.0078911710
 C         -4.0189395012       -3.1602264226       -0.5504135478
 C         -5.3537726424       -3.4992228616       -0.4334112316
 H         -6.7666717446       -4.9136366446        0.3363745765
 H         -5.0314976633       -6.3552194346        1.3357398805
 H         -2.6598947065       -5.7491405495        1.1404212893
 H         -0.9058798621       -5.5953089115       -0.4331253605
 H          1.4561553341       -4.9506683715       -0.6114445316
 H          2.1127336211       -2.5654295567       -0.4225594275
 H          2.9338994389        3.6668185649        0.2023077299
 H          5.3134091137        4.3724489956        0.2210533846
 H          7.0951184839        2.6832697789        0.1237494426
 H          8.0280179473        1.1081336226       -1.4105750592
 H          9.8106443698       -0.5803448719       -1.5029695322
 H          9.6177167782       -2.6591288251       -0.1878990285
 H          7.6310722132       -3.0343549686        1.2265841421
 H          5.8543849594       -1.3379958933        1.3337106041
 H          4.1413188450       -0.4074345847       -0.0390426218
 H          0.0136439945        4.3286788721        0.5293640141
 H         -1.8590597560        5.9524845688        0.6517893006
 H         -4.1758632659        5.1807917508        0.3980309995
 H         -5.6544983660        4.3228356618       -1.2436039746
 H         -7.9574702479        3.5160346727       -1.5239164097
 H         -8.6503029159        1.3701615177       -0.5227024609
 H         -7.0227073898        0.0413881931        0.7750470440
 H         -4.7281221517        0.8580571323        1.0783356789
 H         -2.7665835412        1.1792259009       -0.1471853458
 H         -1.9611566692       -1.4959476350        0.1819964206
 H         -3.7374402971       -2.2720038696       -1.0964391062
 H         -6.1086509269       -2.8646648544       -0.8750246015
