  69
       -106.04349614
 C         -5.7235813977       -4.6492702837        0.2441719430
 C         -4.7489120408       -5.4587620963        0.8030414902
 C         -3.4128709943       -5.1224590303        0.6852014061
 C         -3.0293821707       -3.9676511378        0.0074654873
 C         -1.6111420256       -3.5958776034       -0.1110395283
 C         -0.6245826446       -4.5574236869       -0.3294638463
 C          0.7063705908       -4.1921469334       -0.4392853536
 C          1.0806298407       -2.8656012916       -0.3350367752
 C          0.1068308500       -1.8935182797       -0.1206631152
 C          0.4629919576       -0.4779991883       -0.0228262973
 N          1.7477201332       -0.1385523769       -0.0145193670
 C          2.0032617625        1.1644383344        0.0739780664
 C          3.4038638554        1.5867575003        0.0879349438
 C          3.7291476000        2.9400467010        0.1567957508
 C          5.0559179583        3.3248330113        0.1638066783
 C          6.0601804188        2.3741071030        0.1004668693
 C          5.7512324105        1.0159590278        0.0334121725
 C          6.8174392878        0.0041296362       -0.0295164929
 C          7.9452627030        0.2065887398       -0.8210840599
 C          8.9442349587       -0.7475147093       -0.8795463293
 C          8.8356028826       -1.9156684343       -0.1438887208
 C          7.7190597012       -2.1261540030        0.6480726611
 C          6.7161855760       -1.1763067936        0.7030464096
 C          4.4154470377        0.6337932127        0.0290314398
 N          1.0666958433        2.1066596444        0.1489396085
 C         -0.1906659807        1.6767918123        0.1264857171
 C         -1.2743464931        2.6571005796        0.1951865548
 C         -1.0088639145        4.0069042350        0.4117768003
 C         -2.0576294544        4.9048817041        0.4778741569
 C         -3.3639362782        4.4717369613        0.3260775950
 C         -3.6457289638        3.1236776202        0.1054731544
 C         -5.0279781327        2.6486672155       -0.0613328334
 C         -5.9559814494        3.3909380442       -0.7878450676
 C         -7.2497816413        2.9320714117       -0.9534260104
 C         -7.6389939986        1.7266062831       -0.3936475823
 C         -6.7251270098        0.9812453515        0.3326951308
 C         -5.4304154641        1.4367881139        0.4967200815
 C         -2.5880311921        2.2258033956        0.0431844034
 N         -0.5355887174        0.3960349272        0.0446830750
 C         -1.2288760074       -2.2646995584       -0.0078911710
 C         -4.0189395012       -3.1602264226       -0.5504135478
 C         -5.3537726424       -3.4992228616       -0.4334112316
 H         -6.7666717446       -4.9136366446        0.3363745765
 H         -5.0314976633       -6.3552194346        1.3357398805
 H         -2.6598947065       -5.7491405495        1.1404212893
 H         -0.9058798621       -5.5953089115       -0.4331253605
 H          1.4561553341       -4.9506683715       -0.6114445316
 H          2.1127336211       -2.5654295567       -0.4225594275
 H          2.9338994389        3.6668185649        0.2023077299
 H          5.3134091137        4.3724489956        0.2210533846
 H          7.0951184839        2.6832697789        0.1237494426
 H          8.0280179473        1.1081336226       -1.4105750592
 H          9.8106443698       -0.5803448719       -1.5029695322
 H          9.6177167782       -2.6591288251       -0.1878990285
 H          7.6310722132       -3.0343549686        1.2265841421
 H          5.8543849594       -1.3379958933        1.3337106041
 H          4.1413188450       -0.4074345847       -0.0390426218
 H          0.0136439945        4.3286788721        0.5293640141
 H         -1.8590597560        5.9524845688        0.6517893006
 H         -4.1758632659        5.1807917508        0.3980309995
 H         -5.6544983660        4.3228356618       -1.2436039746
 H         -7.9574702479        3.5160346727       -1.5239164097
 H         -8.6503029159        1.3701615177       -0.5227024609
 H         -7.0227073898        0.0413881931        0.7750470440
 H         -4.7281221517        0.8580571323        1.0783356789
 H         -2.7665835412        1.1792259009       -0.1471853458
 H         -1.9611566692       -1.4959476350        0.1819964206
 H         -3.7374402971       -2.2720038696       -1.0964391062
 H         -6.1086509269       -2.8646648544       -0.8750246015
  69
       -106.04336538
 C         -5.5998273611       -4.7590632719       -0.7266319467
 C         -4.5435930764       -5.5543794417       -1.1383219333
 C         -3.2420988075       -5.1836300140       -0.8553578921
 C         -2.9748654502       -4.0081085279       -0.1574661088
 C         -1.5906959710       -3.6040172830        0.1332519283
 C         -0.6258214732       -4.5434855128        0.4961919723
 C          0.6770976331       -4.1547933477        0.7567920062
 C          1.0443200861       -2.8259311777        0.6593905850
 C          0.0901659025       -1.8751556260        0.3063281793
 C          0.4447457304       -0.4592455462        0.2084456146
 N          1.7300483022       -0.1228923722        0.2145329300
 C          1.9901002407        1.1782517722        0.1152830024
 C          3.3926219444        1.5926520154        0.0835834280
 C          3.7292670860        2.9445253762        0.1041328346
 C          5.0588063655        3.3180623533        0.0618414287
 C          6.0537305081        2.3577429923       -0.0040407037
 C          5.7327197703        1.0008983563       -0.0289041572
 C          6.7874411957       -0.0212408160       -0.1141945251
 C          7.9639979761        0.1036351137        0.6203348639
 C          8.9520333767       -0.8598358435        0.5348763452
 C          8.7835112618       -1.9593138320       -0.2899052718
 C          7.6180198712       -2.0922685262       -1.0261292081
 C          6.6262208722       -1.1334552048       -0.9372709445
 C          4.3946782818        0.6300427562        0.0183820943
 N          1.0565830282        2.1223464189        0.0317185974
 C         -0.2020049591        1.6950230773        0.0372356145
 C         -1.2801842864        2.6786203057       -0.0609579097
 C         -1.0031622832        4.0230327644       -0.2963245688
 C         -2.0452945706        4.9248996224       -0.4001283583
 C         -3.3566917624        4.5006433050       -0.2684934533
 C         -3.6498187177        3.1583969762       -0.0291858049
 C         -5.0384808938        2.6943499820        0.1129549064
 C         -5.4364154952        1.4790770390       -0.4405378721
 C         -6.7381907552        1.0354252687       -0.3025542034
 C         -7.6632213158        1.7956524314        0.3935999743
 C         -7.2782057555        3.0043236831        0.9490096415
 C         -5.9775678187        3.4518960266        0.8085756681
 C         -2.5986850139        2.2563142259        0.0726085338
 N         -0.5515919270        0.4149088001        0.1160909168
 C         -1.2180560131       -2.2685983998        0.0462968322
 C         -4.0453252410       -3.2149627714        0.2508300791
 C         -5.3459820284       -3.5890189251       -0.0304063750
 H         -6.6159950132       -5.0503058300       -0.9475920261
 H         -4.7350960859       -6.4664236105       -1.6849144034
 H         -2.4227846489       -5.7988090589       -1.1974146715
 H         -0.9044668769       -5.5827841481        0.5927836337
 H          1.4096398742       -4.8963514168        1.0406297047
 H          2.0547848533       -2.5067607038        0.8600892060
 H          2.9415143514        3.6791673505        0.1546684233
 H          5.3254832945        4.3649353243        0.0751810139
 H          7.0895444694        2.6599349768       -0.0585406036
 H          8.0943808384        0.9505053240        1.2781760312
 H          9.8572857527       -0.7536119867        1.1145893974
 H          9.5574787330       -2.7093000691       -0.3589870128
 H          7.4828123989       -2.9465216305       -1.6739213388
 H          5.7252197343       -1.2339399084       -1.5245903983
 H          4.1112530541       -0.4110884186        0.0167719733
 H          0.0233539349        4.3366732342       -0.4001788303
 H         -1.8377948604        5.9679891260       -0.5898718537
 H         -4.1635172686        5.2116673521       -0.3716826259
 H         -4.7245973991        0.8893039102       -0.9990319248
 H         -7.0330636438        0.0933756789       -0.7421975655
 H         -8.6798739959        1.4478320346        0.5032622414
 H         -7.9945394971        3.5994837303        1.4966186048
 H         -5.6796677307        4.3868387973        1.2603919282
 H         -2.7866135089        1.2141405510        0.2781357481
 H         -1.9326580725       -1.5163633696       -0.2491029282
 H         -3.8562887486       -2.3097577934        0.8086957258
 H         -6.1655618807       -2.9657281238        0.2969228564
  69
       -106.04308651
 C          2.6421956905       -7.4234602081        0.2561574679
 C          2.7336937048       -6.2461984002       -0.4677713334
 C          1.6556543952       -5.3836359661       -0.5317053969
 C          0.4650396783       -5.6855016448        0.1263470588
 C         -0.6776384653       -4.7614181838        0.0606593972
 C         -1.9832686686       -5.2364885007       -0.0611086179
 C         -3.0518397520       -4.3584508829       -0.1245274053
 C         -2.8410519246       -2.9938497276       -0.0675157507
 C         -1.5425609264       -2.5038015985        0.0512121269
 C         -1.2896030814       -1.0635773099        0.0918229447
 N         -0.0232006632       -0.6620090923        0.0541670670
 C          0.1747824788        0.6522880388        0.0537364516
 C          1.5574665316        1.1273549807       -0.0005927713
 C          1.8408631559        2.4903668969       -0.0490131115
 C          3.1556485438        2.9117948858       -0.1073689353
 C          4.1881798504        1.9894200825       -0.1150796580
 C          3.9208794753        0.6216020204       -0.0648741246
 C          5.0095172319       -0.3676997353       -0.0713355104
 C          4.8845314683       -1.5500966157       -0.7974709275
 C          5.9018504435       -2.4856045422       -0.7996264916
 C          7.0593492191       -2.2580121851       -0.0742323826
 C          7.1939380344       -1.0867008174        0.6516662048
 C          6.1790026596       -0.1476995391        0.6521054487
 C          2.5973500720        0.2037780500       -0.0080915554
 N         -0.8043495168        1.5505715234        0.0925555001
 C         -2.0394463535        1.0604684966        0.1544840809
 C         -3.1497905294        2.0101361557        0.2290704033
 C         -4.4333882964        1.5647839122        0.5383799256
 C         -5.4712020661        2.4734260755        0.6160482399
 C         -5.2427755939        3.8177980010        0.3775512817
 C         -3.9651183862        4.2783202826        0.0598027850
 C         -3.7228154281        5.7053670297       -0.2030081614
 C         -2.5716241225        6.3289255032        0.2730683562
 C         -2.3436927963        7.6695189994        0.0243358936
 C         -3.2586516959        8.4081651877       -0.7073695177
 C         -4.4052112825        7.7976928723       -1.1875762787
 C         -4.6372816482        6.4581901991       -0.9359496505
 C         -2.9224610667        3.3620398480       -0.0056119163
 N         -2.3291989366       -0.2373784011        0.1536071058
 C         -0.4715254873       -3.3886511017        0.1158306411
 C          0.3835233124       -6.8729593927        0.8497498934
 C          1.4641015464       -7.7332114705        0.9147584350
 H          3.4854880085       -8.0961520225        0.3076642895
 H          3.6497732437       -6.0004859670       -0.9851517651
 H          1.7271862008       -4.4754160328       -1.1117892156
 H         -2.1588451665       -6.3005372723       -0.1271180084
 H         -4.0557610384       -4.7447749607       -0.2241710164
 H         -3.6615304528       -2.2959975438       -0.1207364489
 H          1.0253476427        3.1958055769       -0.0419075262
 H          3.3814882960        3.9674113990       -0.1510651952
 H          5.2113545461        2.3299702997       -0.1805808690
 H          3.9906297754       -1.7255116131       -1.3779078103
 H          5.7923726197       -3.3971921706       -1.3695587176
 H          7.8523944610       -2.9909968511       -0.0731885239
 H          8.0928535533       -0.9059244141        1.2227577688
 H          6.2828781682        0.7549435857        1.2363618623
 H          2.3548096980       -0.8455057271        0.0529379085
 H         -4.5929950297        0.5137929296        0.7203945259
 H         -6.4666457182        2.1353848074        0.8656057821
 H         -6.0578485864        4.5226756353        0.4555765721
 H         -1.8631472398        5.7616003241        0.8584243672
 H         -1.4494586921        8.1418044529        0.4038896243
 H         -3.0787558738        9.4548075104       -0.9032297582
 H         -5.1203453740        8.3677357825       -1.7626919213
 H         -5.5245536517        5.9838055807       -1.3295365047
 H         -1.9246703844        3.6810233779       -0.2648723202
 H          0.5229426914       -2.9866643220        0.2315378955
 H         -0.5254173037       -7.1119457074        1.3823499922
 H          1.3888637195       -8.6474170990        1.4852830014
  69
       -106.04308049
 C         -5.6853548438       -4.7595555992       -0.1521783717
 C         -4.6973371915       -5.5239410558       -0.7499989980
 C         -3.3687795960       -5.1610200357       -0.6297703270
 C         -3.0058630532       -4.0243378334        0.0890477677
 C         -1.5939001048       -3.6298549849        0.2103006050
 C         -0.5929279210       -4.5848158760        0.3876705634
 C          0.7342288987       -4.2062633935        0.4961044193
 C          1.0891442813       -2.8723151646        0.4305534025
 C          0.1006506473       -1.9059842584        0.2590180490
 C          0.4483381951       -0.4857957208        0.2062446178
 N          1.7333090204       -0.1477370959        0.1944677975
 C          1.9911236036        1.1575880760        0.1785972786
 C          3.3917137042        1.5789047157        0.1452318174
 C          3.7213817812        2.9285047655        0.2511171707
 C          5.0475768754        3.3135896911        0.2110345542
 C          6.0462090984        2.3666922067        0.0628833320
 C          5.7324899156        1.0123476735       -0.0484582459
 C          6.7941681808        0.0081909024       -0.2191447656
 C          7.9825669571        0.0987260313        0.5012774367
 C          8.9801199266       -0.8441308475        0.3345221097
 C          8.8088787919       -1.8886045893       -0.5583172841
 C          7.6309696413       -1.9878054019       -1.2802272969
 C          6.6299862625       -1.0497060592       -1.1105387181
 C          4.3976891999        0.6296594908       -0.0033196808
 N          1.0556016391        2.1025823092        0.1864737663
 C         -0.2027955888        1.6736711653        0.1749259570
 C         -1.2777723318        2.6659140519        0.1624834352
 C         -0.9952376371        4.0218767053        0.3106621376
 C         -2.0295488347        4.9381881959        0.3064473485
 C         -3.3391569650        4.5167181123        0.1503891586
 C         -3.6378225149        3.1633088940       -0.0041036082
 C         -5.0252273255        2.7051840464       -0.1745046271
 C         -5.9237253630        3.4247509227       -0.9586506620
 C         -7.2236964480        2.9838991695       -1.1238054701
 C         -7.6485832872        1.8194977639       -0.5063017801
 C         -6.7641280308        1.0971738063        0.2771765182
 C         -5.4633083447        1.5345738778        0.4411358411
 C         -2.5943008211        2.2461839690        0.0057067788
 N         -0.5507371529        0.3911207212        0.1795847844
 C         -1.2316421084       -2.2900600434        0.1492017561
 C         -4.0083061276       -3.2623344835        0.6854257240
 C         -5.3359383434       -3.6284236651        0.5662736469
 H         -6.7227492395       -5.0447512247       -0.2461473397
 H         -4.9642057970       -6.4054851393       -1.3147379067
 H         -2.6053242437       -5.7507918106       -1.1158209395
 H         -0.8600152268       -5.6290787932        0.4604134073
 H          1.4953868445       -4.9597961715        0.6368366869
 H          2.1180183243       -2.5609266200        0.5166554366
 H          2.9306349562        3.6529757126        0.3630379388
 H          5.3083396937        4.3589257175        0.2908862880
 H          7.0792315707        2.6786785861        0.0111394545
 H          8.1156737386        0.9017733413        1.2115866127
 H          9.8945766146       -0.7646650603        0.9043942725
 H          9.5899975335       -2.6224642712       -0.6912148204
 H          7.4940254369       -2.7990000166       -1.9805838322
 H          5.7203762765       -1.1212837698       -1.6885026577
 H          4.1203891011       -0.4109159625       -0.0698537620
 H          0.0301262829        4.3330841436        0.4314504599
 H         -1.8177322828        5.9904392284        0.4288062452
 H         -4.1409682674        5.2405700644        0.1673782427
 H         -5.5939755311        4.3233123515       -1.4594685889
 H         -7.9082568083        3.5492200886       -1.7394532407
 H         -8.6644959929        1.4766864756       -0.6355187078
 H         -7.0910845339        0.1897641009        0.7638485914
 H         -4.7832381345        0.9767543645        1.0676945921
 H         -2.7870720681        1.1937612153       -0.1316492852
 H         -1.9769019602       -1.5255785829       -0.0045632180
 H         -3.7411282262       -2.3892885442        1.2622829956
 H         -6.1023638323       -3.0308519267        1.0383752715
  69
       -106.04288894
 C         -5.5239244119       -4.8832991363       -0.8537702768
 C         -5.3158470091       -3.7081824226       -0.1509891697
 C         -4.0323408193       -3.3069280917        0.1688000209
 C         -2.9338708833       -4.0770563603       -0.2071205088
 C         -1.5674361384       -3.6469676119        0.1268858478
 C         -0.6016252416       -4.5717886295        0.5233654918
 C          0.6867874315       -4.1645859296        0.8237874718
 C          1.0371733051       -2.8310726269        0.7323520153
 C          0.0809275271       -1.8939876108        0.3483443144
 C          0.4274936793       -0.4748669536        0.2649708174
 N          1.7133074973       -0.1406775333        0.2748136338
 C          1.9752357498        1.1619474031        0.2049371157
 C          3.3776397613        1.5766311853        0.1719122550
 C          3.7153976085        2.9239398815        0.2806687770
 C          5.0439474409        3.3007393022        0.2398488091
 C          6.0362175173        2.3485045935        0.0824934526
 C          5.7141559619        0.9964097553       -0.0311213916
 C          6.7673584779       -0.0157086075       -0.2060863708
 C          7.8504192346        0.2241527650       -1.0482862139
 C          8.8360462709       -0.7306869297       -1.2164079119
 C          8.7586500721       -1.9376849910       -0.5420447368
 C          7.6870480185       -2.1856275279        0.2995224770
 C          6.6975603431       -1.2344886708        0.4645637346
 C          4.3772619595        0.6213536808        0.0202268728
 N          1.0422178575        2.1078114293        0.1630669405
 C         -0.2177967817        1.6827749337        0.1565777138
 C         -1.2848353125        2.6827719567        0.1165362702
 C         -0.9775764392        4.0415638392        0.0975583669
 C         -1.9984604046        4.9720859912        0.0705101456
 C         -3.3202329849        4.5608954878        0.0587453495
 C         -3.6445186657        3.2045131500        0.0746891430
 C         -5.0482737548        2.7646269664        0.0635419521
 C         -5.9924930812        3.4153837543       -0.7269983121
 C         -7.3108429668        2.9990068829       -0.7356676559
 C         -7.7085606436        1.9286352768        0.0476901692
 C         -6.7780758142        1.2743578628        0.8377350626
 C         -5.4586678215        1.6865317828        0.8447021767
 C         -2.6140811715        2.2730495951        0.1048375659
 N         -0.5697196716        0.4011590295        0.1901470544
 C         -1.2131950783       -2.3055488986        0.0494856296
 C         -3.1550398794       -5.2572734325       -0.9131745358
 C         -4.4393298233       -5.6553788240       -1.2347097859
 H         -6.5267761612       -5.1955658930       -1.1048619558
 H         -6.1583344733       -3.1019648633        0.1487837474
 H         -3.8778223047       -2.3981747050        0.7312660140
 H         -0.8691388231       -5.6144855320        0.6142812175
 H          1.4202145932       -4.8947989925        1.1335559510
 H          2.0365027521       -2.4963774553        0.9616161696
 H          2.9293673746        3.6525026834        0.3994384201
 H          5.3120599063        4.3432191419        0.3315831074
 H          7.0732136579        2.6510526259        0.0654039841
 H          7.9073251045        1.1565238111       -1.5910161311
 H          9.6672738648       -0.5337578949       -1.8778879787
 H          9.5301169729       -2.6821608688       -0.6723390654
 H          7.6238343178       -3.1245193225        0.8303081518
 H          5.8715364678       -1.4262692980        1.1333600474
 H          4.0911015692       -0.4138088760       -0.0844493357
 H          0.0573722003        4.3439805932        0.1056034696
 H         -1.7663040528        6.0271129881        0.0617424430
 H         -4.1109764773        5.2969962454        0.0575178004
 H         -5.6858995462        4.2396422591       -1.3543678993
 H         -8.0313014755        3.5105367522       -1.3573633716
 H         -8.7392040328        1.6060048200        0.0423716411
 H         -7.0837994267        0.4409611758        1.4537110630
 H         -4.7409281347        1.1838766111        1.4761532483
 H         -2.8275866715        1.2155941841        0.1013009680
 H         -1.9296835725       -1.5650807729       -0.2704519548
 H         -2.3128299562       -5.8539273118       -1.2319013462
 H         -4.5950632750       -6.5706788372       -1.7871840876
  69
       -106.04281273
 C         -4.8624616929       -7.0023342516        0.0253402640
 C         -4.6825131754       -5.8819875375        0.8193297187
 C         -3.4911388580       -5.1821409062        0.7754282834
 C         -2.4566074146       -5.5961764530       -0.0603287381
 C         -1.1860657514       -4.8555342562       -0.1006755625
 C          0.0313186863       -5.5334322296       -0.1576939265
 C          1.2272132966       -4.8370973387       -0.1884461747
 C          1.2312817255       -3.4557732836       -0.1655837208
 C          0.0233304548       -2.7633727642       -0.1112776006
 C          0.0121462171       -1.3003940212       -0.0868174377
 N          1.1809538588       -0.6670265154       -0.0629280739
 C          1.1234826681        0.6610095032       -0.0297961257
 C          2.3842715191        1.4029486909        0.0011568135
 C          2.3786793987        2.7963510552        0.0136722720
 C          3.5758620544        3.4851830837        0.0415862166
 C          4.7774648723        2.7982207006        0.0592203828
 C          4.8001851557        1.4040271863        0.0458183275
 C          6.0772680651        0.6736015875        0.0577336767
 C          6.2582891127       -0.4467374855       -0.7498704221
 C          7.4599961975       -1.1300607567       -0.7450986355
 C          8.4972146950       -0.7098427941        0.0708191101
 C          8.3259932717        0.3998390699        0.8813924921
 C          7.1272057447        1.0886231067        0.8731828618
 C          3.5936410601        0.7158082691        0.0161727414
 N         -0.0097646750        1.3564507339       -0.0271459858
 C         -1.1313004791        0.6431166125       -0.0621878223
 C         -2.4043019974        1.3642626788       -0.0762194011
 C         -3.6050013494        0.6664027003       -0.1899974417
 C         -4.7998240825        1.3597005777       -0.2067997015
 C         -4.8086379297        2.7403206489       -0.1076060292
 C         -3.6157535762        3.4535039188        0.0071350818
 C         -3.6240483690        4.9209764682        0.1105153987
 C         -4.5739869774        5.5737851592        0.8924109079
 C         -4.5781146499        6.9529275905        0.9895759045
 C         -3.6371400150        7.7023072437        0.3034925331
 C         -2.6892930356        7.0634128145       -0.4784716690
 C         -2.6801043970        5.6842290708       -0.5726748975
 C         -2.4165670078        2.7518209157        0.0200482896
 N         -1.1668271850       -0.6856676829       -0.0888560472
 C         -1.1765748284       -3.4663582830       -0.0780405957
 C         -2.6478582657       -6.7247528353       -0.8538007958
 C         -3.8422467300       -7.4198064277       -0.8127413904
 H         -5.7938164237       -7.5480151466        0.0595650603
 H         -5.4743024760       -5.5537778667        1.4769832731
 H         -3.3501726454       -4.3181263775        1.4080138224
 H          0.0386517149       -6.6137647935       -0.1567648083
 H          2.1612580148       -5.3785652814       -0.2269967964
 H          2.1537417565       -2.8978876823       -0.1884302093
 H          1.4338744374        3.3158202473        0.0004385058
 H          3.5763337921        4.5654984766        0.0469590245
 H          5.7093786531        3.3447762533        0.0632696255
 H          5.4572854716       -0.7685315438       -1.3990775026
 H          7.5897856563       -1.9932365499       -1.3817826709
 H          9.4351049303       -1.2453017356        0.0754308070
 H          9.1300679706        0.7287553588        1.5236795854
 H          6.9939352666        1.9441247701        1.5193392164
 H          3.5756245360       -0.3628334120        0.0239133590
 H         -3.5801297332       -0.4087993175       -0.2679453184
 H         -5.7329629012        0.8235450072       -0.3011208822
 H         -5.7467973843        3.2751141055       -0.1395121969
 H         -5.3000408552        4.9941458650        1.4437583795
 H         -5.3169160071        7.4457500781        1.6048411379
 H         -3.6425050509        8.7797058162        0.3781799635
 H         -1.9549816900        7.6435907477       -1.0183188424
 H         -1.9485753071        5.1915008919       -1.1961453028
 H         -1.4766461454        3.2706941237        0.1258774736
 H         -2.1005819482       -2.9101278420       -0.0515331051
 H         -1.8622898358       -7.0454306181       -1.5224800628
 H         -3.9789770058       -8.2900372130       -1.4382507106
  69
       -106.04259188
 C         -4.8423847289       -6.9824946852        0.1368980960
 C         -4.5700602554       -5.8883550577        0.9411911693
 C         -3.3857302254       -5.1918311717        0.7899049283
 C         -2.4503764070       -5.5835332821       -0.1651925232
 C         -1.1878021229       -4.8437214084       -0.3169216657
 C          0.0168644206       -5.5194969263       -0.5079271024
 C          1.2058854734       -4.8218625379       -0.6338577331
 C          1.2146575233       -3.4415196514       -0.5757818921
 C          0.0177891497       -2.7516339295       -0.3943311161
 C          0.0103080028       -1.2898138186       -0.3377478743
 N          1.1808668043       -0.6605411900       -0.3068510860
 C          1.1267138813        0.6670502435       -0.2543237571
 C          2.3902019644        1.4032081945       -0.2106759066
 C          2.4031044857        2.7871248683       -0.3700992568
 C          3.6043391296        3.4683705672       -0.3266795096
 C          4.7890618184        2.7842043945       -0.1160313051
 C          4.7921839408        1.3995530308        0.0502167466
 C          6.0488538091        0.6714139587        0.2836924670
 C          6.2793215273       -0.5591268293       -0.3271848884
 C          7.4585915260       -1.2450777614       -0.1043511354
 C          8.4245836486       -0.7162101995        0.7355179939
 C          8.2048550673        0.5053041924        1.3496316107
 C          7.0280784053        1.1952128871        1.1243058259
 C          3.5826765016        0.7178668645       -0.0045796071
 N         -0.0037905892        1.3659046962       -0.2385383792
 C         -1.1274452452        0.6553032637       -0.2699951403
 C         -2.3974196677        1.3811952381       -0.2486447272
 C         -3.5955392461        0.7097770776       -0.4829833466
 C         -4.7864870603        1.4098666536       -0.4593017009
 C         -4.7940961377        2.7687865260       -0.1954340485
 C         -3.6035438682        3.4540871909        0.0444545656
 C         -3.6078333994        4.8963500509        0.3341303450
 C         -4.5760695000        5.4513086170        1.1673191500
 C         -4.5705417168        6.8050653012        1.4480527683
 C         -3.6018248792        7.6268301929        0.8967184278
 C         -2.6368082608        7.0859516320        0.0635294232
 C         -2.6372602951        5.7317561381       -0.2139552132
 C         -2.4075844776        2.7475955047        0.0102018377
 N         -1.1673762902       -0.6723770456       -0.3176712741
 C         -1.1747572056       -3.4554257406       -0.2647364417
 C         -2.7331043756       -6.6861328468       -0.9672702768
 C         -3.9214762326       -7.3773193996       -0.8189083429
 H         -5.7689910754       -7.5247114820        0.2541745574
 H         -5.2830282259       -5.5788499047        1.6915930554
 H         -3.1701933405       -4.3489388211        1.4300753194
 H          0.0218324108       -6.5995517380       -0.5353191749
 H          2.1311855558       -5.3615658480       -0.7742476372
 H          2.1313665442       -2.8818832999       -0.6723347615
 H          1.4705524428        3.3043164981       -0.5309111759
 H          3.6212817365        4.5405284924       -0.4582867719
 H          5.7247787163        3.3238830167       -0.0982349705
 H          5.5354636011       -0.9687666433       -0.9944727862
 H          7.6264927307       -2.1964550779       -0.5880138541
 H          9.3446236017       -1.2538888376        0.9109312859
 H          8.9529755437        0.9208347051        2.0091244241
 H          6.8554147179        2.1389662853        1.6208909579
 H          3.5459495294       -0.3510732021        0.1377355903
 H         -3.5717897225       -0.3491313256       -0.6860930654
 H         -5.7175664105        0.8960008436       -0.6494265323
 H         -5.7289667414        3.3103076294       -0.1937512976
 H         -5.3241122224        4.8127721447        1.6142634958
 H         -5.3232302312        7.2208272360        2.1021545789
 H         -3.5982496306        8.6841540015        1.1166504665
 H         -1.8808589878        7.7234106407       -0.3716856142
 H         -1.8916243880        5.3169294693       -0.8760630442
 H         -1.4699542596        3.2424612294        0.2106951917
 H         -2.0911999318       -2.9006445208       -0.1363700811
 H         -2.0256183859       -6.9896852148       -1.7252712179
 H         -4.1312719608       -8.2267138439       -1.4527659781
  69
       -106.04251457
 C         -4.7558747972       -7.1593901440       -0.0726250845
 C         -4.6525455830       -6.0298285057        0.7221762687
 C         -3.4909679533       -5.2801348699        0.7182107516
 C         -2.4100044376       -5.6536893870       -0.0766116348
 C         -1.1629705103       -4.8733636262       -0.0574863799
 C          0.0710165319       -5.5230680549       -0.0459457294
 C          1.2505286242       -4.7999508281       -0.0134707793
 C          1.2193738967       -3.4193622853        0.0016486468
 C         -0.0055287140       -2.7542588491       -0.0133111021
 C         -0.0359680705       -1.2912095250       -0.0105054999
 N          1.1298096181       -0.6553098647       -0.0722972535
 C          1.0705187091        0.6721595913       -0.1067128898
 C          2.3303949735        1.4103781421       -0.1942905334
 C          2.3310237091        2.7873472197       -0.4057232818
 C          3.5327340790        3.4637609874       -0.4926352850
 C          4.7310724075        2.7827529328       -0.3624642130
 C          4.7467711170        1.4053799270       -0.1453346287
 C          6.0137056603        0.6732751403        0.0035309543
 C          6.1727315145       -0.5866995687       -0.5693466614
 C          7.3571745742       -1.2833251793       -0.4195495063
 C          8.4007468365       -0.7351080377        0.3076364497
 C          8.2537981405        0.5171011713        0.8802680721
 C          7.0713433766        1.2174206856        0.7280641462
 C          3.5356880834        0.7291221337       -0.0666356099
 N         -0.0622131638        1.3646833435       -0.0714384530
 C         -1.1803157753        0.6501524585        0.0253372780
 C         -2.4429705572        1.3851337114        0.1026676208
 C         -3.6581461466        0.7108570209        0.1994013005
 C         -4.8345176005        1.4323311254        0.2752072056
 C         -4.8117539774        2.8166584201        0.2531069335
 C         -3.6038585717        3.5056034469        0.1512940267
 C         -3.5645870098        4.9758449913        0.1148996155
 C         -4.3780536725        5.7366716575        0.9504359706
 C         -4.3228481585        7.1180659282        0.9174024094
 C         -3.4603186484        7.7607766852        0.0453054570
 C         -2.6510946440        7.0134446895       -0.7942560391
 C         -2.7001925370        5.6326250850       -0.7583308362
 C         -2.4242465548        2.7758461966        0.0796806519
 N         -1.2154992890       -0.6789883844        0.0517405092
 C         -1.1895066992       -3.4839269338       -0.0393058676
 C         -2.5260742064       -6.7886845163       -0.8756274553
 C         -3.6909009888       -7.5334128988       -0.8750003046
 H         -5.6626392659       -7.7459728171       -0.0670232966
 H         -5.4801448528       -5.7348879587        1.3509232714
 H         -3.4078075007       -4.4097062626        1.3522875359
 H          0.1021578281       -6.6029511216       -0.0414619872
 H          2.1979172005       -5.3188356625        0.0027008217
 H          2.1279581389       -2.8393147834        0.0257673858
 H          1.3893208908        3.3036880929       -0.5028970277
 H          3.5393801995        4.5303133057       -0.6647204664
 H          5.6650683948        3.3189009431       -0.4482794971
 H          5.3677702406       -1.0118682901       -1.1505860933
 H          7.4678802212       -2.2580621624       -0.8721778181
 H          9.3244917125       -1.2816172411        0.4276725143
 H          9.0633357789        0.9482100730        1.4512703312
 H          6.9563753779        2.1849953155        1.1945740406
 H          3.5102059502       -0.3332787942        0.1185590199
 H         -3.6601827572       -0.3674097113        0.2140956091
 H         -5.7798575734        0.9144643310        0.3486194156
 H         -5.7384588538        3.3705597263        0.2948011515
 H         -5.0405424378        5.2413271559        1.6453469468
 H         -4.9533645081        7.6967585014        1.5768221892
 H         -3.4187502905        8.8396760165        0.0198690389
 H         -1.9795707120        7.5094710573       -1.4800289806
 H         -2.0779628192        5.0535540511       -1.4247371266
 H         -1.4708323440        3.2774668585        0.0245135418
 H         -2.1269329059       -2.9503262006       -0.0668785791
 H         -1.7040867421       -7.0772144113       -1.5146797116
 H         -3.7685786898       -8.4096403039       -1.5024038740
