  74
       -116.44694703
 C          0.4810114577       -3.1575424611        1.1634120897
 O          1.2397171950       -2.0210993811        0.8334523334
 C          0.5926719172       -0.8695332356        0.5103035198
 C         -0.7627699091       -0.7305736828        0.4808180146
 C         -1.3983098548        0.4924053305        0.1339963852
 C         -2.7834649062        0.6711801332        0.1003274673
 C         -3.7509295010       -0.2782631430        0.3895589524
 C         -5.1510058187       -0.0802871745        0.3448399225
 C         -5.7642095959        1.1473788774        0.0047892070
 C         -7.1286321702        1.2767984410       -0.0350052214
 C         -7.9569542571        0.1881277352        0.2577025634
 N         -9.3435209969        0.3314315975        0.2107606930
 C        -10.0627317450        1.4094205375        0.6585206613
 N        -11.3436485044        1.2820372988        0.5354821278
 C        -11.5346079325        0.0526296003       -0.0464369796
 C        -12.7081372427       -0.5841344663       -0.4306140890
 C        -12.5990524899       -1.8227891824       -1.0275268570
 C        -11.3568041124       -2.4167229506       -1.2556856760
 C        -10.1783452811       -1.8024271095       -0.8803797483
 C        -10.2798123346       -0.5690027028       -0.2558243043
 C         -7.3754873343       -1.0323020766        0.6159872357
 C         -6.0111154700       -1.1591043802        0.6570563891
 C         -0.5319857333        1.6032601632       -0.2011400499
 O         -1.1790040324        2.7513543469       -0.5354005374
 C         -0.4206327018        3.8846630065       -0.8780168996
 C          0.8234468448        1.4647723868       -0.1699688081
 C          1.4593267446        0.2442125718        0.1848722348
 C          2.8445507663        0.0717513416        0.2357704906
 C          3.8094143492        1.0242110883       -0.0547083893
 C          5.2099504394        0.8392602245        0.0078766136
 C          5.8312406375       -0.3599761289        0.4258951646
 C          7.1965714311       -0.4841286766        0.4592392409
 C          8.0178372838        0.5805223375        0.0737512107
 N          9.4068750022        0.4614375169        0.1084061225
 C         10.2893516461        1.4184277956        0.5389862497
 N         11.5286694653        1.0505538255        0.5098929820
 C         11.5181065076       -0.2311756198        0.0167869440
 C         12.5714880603       -1.0973826867       -0.2485298446
 C         12.2661279799       -2.3349663970       -0.7751018491
 C         10.9491949663       -2.7071648367       -1.0493955538
 C          9.8873385758       -1.8624171601       -0.7926208868
 C         10.1826636035       -0.6262896334       -0.2389043859
 C          7.4279680985        1.7842772085       -0.3268247517
 C          6.0634695238        1.9068205545       -0.3582308929
 H          1.2043343383       -3.9408947660        1.3850798184
 H         -0.1430589666       -2.9810678763        2.0451647626
 H         -0.1506720576       -3.4743521743        0.3273967300
 H         -1.3973601690       -1.5649982339        0.7253238642
 H         -3.1093175841        1.6597425833       -0.1842396179
 H         -3.4359135458       -1.2727463906        0.6740874588
 H         -5.1515427984        2.0010367829       -0.2364265269
 H         -7.5761581180        2.2196670819       -0.3139875108
 H         -9.5838267079        2.2626974931        1.0992450927
 H        -13.6629592296       -0.1104716184       -0.2696449005
 H        -13.4917655983       -2.3451314792       -1.3381619808
 H        -11.3163163252       -3.3798923673       -1.7424820332
 H         -9.2218909947       -2.2608491653       -1.0810324819
 H         -8.0093380815       -1.8641002129        0.8838666458
 H         -5.5746171138       -2.1057651620        0.9419062121
 H          0.2156564083        4.2072574679       -0.0478557785
 H         -1.1444293452        4.6669365456       -1.1022281220
 H          0.1983997404        3.7001469876       -1.7617738984
 H          1.4573472413        2.2987265187       -0.4178248290
 H          3.1730094581       -0.9129911939        0.5304813186
 H          3.4897025930        2.0085294625       -0.3675517088
 H          5.2232527659       -1.1936752664        0.7390840035
 H          7.6492735809       -1.3991254992        0.8105298354
 H          9.9554772240        2.3740153591        0.8956112542
 H         13.5875918471       -0.7952901219       -0.0530607435
 H         13.0614606568       -3.0323340028       -0.9933092592
 H         10.7565365451       -3.6795783792       -1.4781423004
 H          8.8746975229       -2.1519907488       -1.0289199562
 H          8.0571818417        2.6087049886       -0.6292253178
 H          5.6211509096        2.8386588611       -0.6800697269
