  54
        -90.40271530
 C         -5.9837857004       -0.1419661192       -1.3051255315
 C         -5.0359006594       -0.0073265008       -0.0988469909
 C         -5.8469629413        0.1663311351        1.1989013260
 C         -4.1702639106        1.2203381385       -0.3003733844
 C         -4.7635089790        2.4716537906       -0.3966959385
 C         -4.0209789015        3.6215396884       -0.5915844339
 C         -2.6435055125        3.5321079343       -0.7022954380
 C         -2.0274996438        2.3031617390       -0.6148848997
 C         -2.7763168681        1.1389517469       -0.4080727389
 N         -2.1293694959       -0.0809246210       -0.3233815861
 C         -0.7148066556       -0.1184076625       -0.4590864030
 C         -0.1478149050       -0.4332218319       -1.6763717659
 C          1.2415706299       -0.4888712387       -1.8834653131
 C          2.0673738407       -0.2158661874       -0.8194644212
 C          1.4800229034        0.1059380438        0.4294374438
 C          2.4616210287        0.3579814048        1.4177933453
 C          2.0496974549        0.6826640565        2.6866410793
 C          0.6656358608        0.7474642485        2.9410913058
 C         -0.2856619832        0.5036927716        1.9804239069
 C          0.1100674484        0.1685131088        0.6642961784
 C          3.7416018712        0.1881953427        0.7601841054
 N          4.9600047368        0.3106744038        1.2438151659
 C          5.9664815483        0.0975273372        0.4186444247
 N          7.2536046067        0.1375536375        0.5803937929
 O          7.8158944404       -0.1717871632       -0.6225165719
 N          6.8722810805       -0.4158220498       -1.5773120395
 C          5.7133681861       -0.2690618269       -1.0104555781
 N          4.4814849134       -0.3844291431       -1.4635999776
 C          3.4975386935       -0.1644978508       -0.6133342904
 C         -2.8129128842       -1.2616564078       -0.0950608113
 C         -2.0973556458       -2.4564742638        0.0433189117
 C         -2.7510418586       -3.6495276212        0.2596203369
 C         -4.1330531015       -3.6720438251        0.3443835288
 C         -4.8409529182       -2.4905169725        0.2241167992
 C         -4.2093170337       -1.2728898827        0.0109034576
 H         -5.4060051688       -0.2700357653       -2.2184833072
 H         -6.6019714216        0.7448302196       -1.4121264480
 H         -6.6372450968       -1.0019049693       -1.1890061421
 H         -5.1734455857        0.2701889952        2.0475386611
 H         -6.4740044317        1.0517220475        1.1486452721
 H         -6.4878618827       -0.6927383403        1.3738369361
 H         -5.8365463872        2.5577567333       -0.3202845266
 H         -4.5145320583        4.5784895771       -0.6605312905
 H         -2.0482472491        4.4182468622       -0.8606597692
 H         -0.9547119144        2.2368895402       -0.7086196198
 H         -0.8062266557       -0.6468062431       -2.5063997077
 H          1.6345965360       -0.7380709465       -2.8562969872
 H          2.7580552223        0.8842235554        3.4748424049
 H          0.3449605496        1.0015673520        3.9408702189
 H         -1.3360192464        0.5672311470        2.2238736182
 H         -1.0200513325       -2.4413425131       -0.0172631494
 H         -2.1813334398       -4.5604109280        0.3617217707
 H         -4.6561026540       -4.6012695464        0.5082973916
 H         -5.9170087302       -2.5244403343        0.2990967796
  54
        -90.40258526
 C         -5.8766679407       -0.1586398304       -1.4896244391
 C         -5.0457988712       -0.0252028106       -0.1993791253
 C         -5.9756495080        0.1256543048        1.0186497892
 C         -4.1802538570        1.2137985749       -0.3144411524
 C         -4.7777071365        2.4622124336       -0.4226859941
 C         -4.0352675736        3.6213013154       -0.5525233572
 C         -2.6531200404        3.5440851632       -0.5883030678
 C         -2.0325629904        2.3180781684       -0.4909640035
 C         -2.7817269668        1.1448555618       -0.3458481730
 N         -2.1309885108       -0.0721751227       -0.2466801126
 C         -0.7176966797       -0.1125394125       -0.3921755170
 C         -0.1688292367       -0.4507626181       -1.6117540432
 C          1.2166687807       -0.5142534139       -1.8388939077
 C          2.0585038850       -0.2257099361       -0.7918591071
 C          1.4906572272        0.1190757588        0.4598788031
 C          2.4881704077        0.3845109762        1.4288539747
 C          2.0965773232        0.7339700936        2.6975846080
 C          0.7166996599        0.8089694546        2.9714538048
 C         -0.2500300849        0.5515337214        2.0298661334
 C          0.1243470129        0.1912070961        0.7139518483
 C          3.7576152548        0.1990521155        0.7550957042
 N          4.9839094483        0.3246694768        1.2179655978
 C          5.9768490613        0.0954379368        0.3807962627
 N          7.2664794188        0.1343014224        0.5215865842
 O          7.8090642448       -0.1945846147       -0.6853357014
 N          6.8499437626       -0.4504247597       -1.6213247455
 C          5.7004663681       -0.2920834467       -1.0386309461
 N          4.4613818787       -0.4114815132       -1.4703742505
 C          3.4915567876       -0.1753278546       -0.6084478605
 C         -2.8165720674       -1.2579541208       -0.0525984638
 C         -2.0987403596       -2.4442724240        0.1375223728
 C         -2.7525323463       -3.6429570431        0.3200710358
 C         -4.1369110491       -3.6794737780        0.3169815131
 C         -4.8479189640       -2.5057630079        0.1480274946
 C         -4.2164649710       -1.2821468540       -0.0285971830
 H         -6.4962231135        0.7206734824       -1.6424130027
 H         -6.5229975340       -1.0307214894       -1.4433024407
 H         -5.2155739185       -0.2660757446       -2.3476262771
 H         -5.3846728997        0.2263704249        1.9269145517
 H         -6.6060323893        1.0043622411        0.9201178403
 H         -6.6214183559       -0.7408778563        1.1244074169
 H         -5.8540983395        2.5386875506       -0.4102069053
 H         -4.5322523426        4.5756370143       -0.6318925209
 H         -2.0573915806        4.4375237716       -0.6958061479
 H         -0.9558751146        2.2619824198       -0.5293425876
 H         -0.8402456543       -0.6775110479       -2.4278033451
 H          1.5945804277       -0.7806044459       -2.8131365173
 H          2.8174143024        0.9470561896        3.4713353987
 H          0.4122272983        1.0830902034        3.9710237944
 H         -1.2963716934        0.6239626923        2.2874909777
 H         -1.0199922753       -2.4175197650        0.1443764806
 H         -2.1813637780       -4.5471276255        0.4647659547
 H         -4.6598745075       -4.6136920989        0.4507016555
 H         -5.9261144475       -2.5514388608        0.1518720173
  54
        -90.40097524
 C         -5.0187438544       -0.3194531165       -2.0606402234
 C         -4.9765908749       -0.0707354406       -0.5356573226
 C         -6.4143677399        0.0218768376       -0.0208019303
 C         -4.1998644032        1.2139452443       -0.3218723291
 C         -4.8083390634        2.4541361283       -0.2133218575
 C         -4.0688154886        3.6242302585       -0.1676156334
 C         -2.6888607291        3.5692417185       -0.2517594001
 C         -2.0551425354        2.3474929364       -0.3380452360
 C         -2.7973231753        1.1647103675       -0.3503116565
 N         -2.1517791268       -0.0622560896       -0.3741487823
 C         -0.7361770945       -0.0930957219       -0.5000350408
 C         -0.1743946271       -0.3222381282       -1.7369159882
 C          1.2149316160       -0.3666278294       -1.9532738744
 C          2.0451370286       -0.1711540677       -0.8765227544
 C          1.4632714491        0.0627233566        0.3946296098
 C          2.4490945427        0.2435566172        1.3941174699
 C          2.0430442192        0.4792598101        2.6843737045
 C          0.6603278780        0.5289847114        2.9481570347
 C         -0.2952978023        0.3544928833        1.9766691100
 C          0.0947448546        0.1109543345        0.6387974137
 C          3.7261233366        0.1190734327        0.7212446709
 N          4.9466717465        0.2079826558        1.2066623080
 C          5.9500851605        0.0542752047        0.3652494878
 N          7.2377335305        0.0838786259        0.5236603827
 O          7.7950697491       -0.1402419824       -0.7002210443
 N          6.8474662007       -0.3174189903       -1.6658816808
 C          5.6908694314       -0.2119167346       -1.0854700458
 N          4.4570789752       -0.2952481130       -1.5396493979
 C          3.4762319326       -0.1359820180       -0.6727790346
 C         -2.8127861577       -1.2072227474        0.0439293819
 C         -2.0844174812       -2.3283767184        0.4472730070
 C         -2.7328525240       -3.4508649055        0.9175098213
 C         -4.1140792654       -3.4638328747        0.9994717354
 C         -4.8394786047       -2.3632183181        0.5742657581
 C         -4.2156991362       -1.2294499061        0.0786279294
 H         -5.5424681103       -1.2489830210       -2.2729529407
 H         -4.0122104230       -0.3901979482       -2.4667144467
 H         -5.5343027150        0.4990445448       -2.5578396589
 H         -6.9458421573        0.8268891032       -0.5198766875
 H         -6.9570352910       -0.8931413288       -0.2399251651
 H         -6.4307344714        0.1966067703        1.0527262264
 H         -5.8823986152        2.5281864321       -0.1720942981
 H         -4.5729349825        4.5746555897       -0.0844853797
 H         -2.1030430373        4.4757344016       -0.2436426692
 H         -0.9783006098        2.3057084969       -0.3923823545
 H         -0.8349073527       -0.4730560424       -2.5790317905
 H          1.6033962790       -0.5485888119       -2.9427820702
 H          2.7550635083        0.6227156145        3.4820683239
 H          0.3434376169        0.7130790187        3.9644334741
 H         -1.3443306575        0.4025937389        2.2293566501
 H         -1.0066337865       -2.3144260839        0.3953836315
 H         -2.1577794913       -4.3104248797        1.2261724255
 H         -4.6299343525       -4.3328149555        1.3778376173
 H         -5.9144834103       -2.4101560809        0.6263986021
  54
        -90.40085522
 C         -6.3898393219        0.0925048905       -0.1862184210
 C         -4.9937211903        0.1090484007        0.4421371560
 C         -5.1439780734        0.2566111440        1.9731830036
 C         -4.1669695037        1.2874711207       -0.0355227870
 C         -4.7371545877        2.4868153700       -0.4333311494
 C         -3.9648305391        3.5936901618       -0.7429134168
 C         -2.5866223370        3.5189389698       -0.6449108733
 C         -1.9908964330        2.3348616196       -0.2658915998
 C         -2.7675052891        1.2116374951        0.0294434148
 N         -2.1520393930        0.0161154458        0.3673135145
 C         -0.7377980919        0.0022843189        0.5103483062
 C         -0.1824364605        0.2167758631        1.7530648529
 C          1.2056409985        0.2608607684        1.9765485531
 C          2.0413441300        0.0859446191        0.9003435732
 C          1.4660032763       -0.1432987266       -0.3747287701
 C          2.4567062880       -0.2952666557       -1.3742569131
 C          2.0574099473       -0.5187506153       -2.6688764423
 C          0.6762144977       -0.5809091131       -2.9377114592
 C         -0.2843198798       -0.4255987139       -1.9677256769
 C          0.0987940114       -0.1971093828       -0.6251065174
 C          3.7299135421       -0.1498312430       -0.6983059996
 N          4.9522237125       -0.1929717814       -1.1855833467
 C          5.9507079645       -0.0103490065       -0.3438501522
 N          7.2383053149        0.0112263471       -0.5046664918
 O          7.7890421211        0.2456186342        0.7203025641
 N          6.8373183699        0.3770709792        1.6890543349
 C          5.6844070205        0.2327053856        1.1095227784
 N          4.4490706380        0.2672255912        1.5661280478
 C          3.4731159248        0.0842009593        0.6982017305
 C         -2.8381642198       -1.1832135883        0.2663792186
 C         -2.1335313017       -2.3887592371        0.2246983379
 C         -2.8011449081       -3.5851179714        0.0704778868
 C         -4.1797127868       -3.5921720498       -0.0482859496
 C         -4.8825246562       -2.4014025052        0.0275202602
 C         -4.2402328583       -1.1849096773        0.1979788677
 H         -6.9271214664        1.0054106524        0.0518847698
 H         -6.9799419403       -0.7275317148        0.2115257992
 H         -6.3248279374       -0.0085167284       -1.2671506760
 H         -4.1681151025        0.2696923879        2.4536712621
 H         -5.6580254388        1.1854357245        2.2105645528
 H         -5.7151193895       -0.5774598914        2.3750285811
 H         -5.8084627215        2.5809388405       -0.4986145254
 H         -4.4414458151        4.5129984512       -1.0461845355
 H         -1.9733256182        4.3784277072       -0.8683477918
 H         -0.9155158930        2.2746356723       -0.2012950016
 H         -0.8475723377        0.3653906484        2.5917082662
 H          1.5891000989        0.4355082678        2.9692026878
 H          2.7734588241       -0.6429817413       -3.4660486983
 H          0.3646137105       -0.7561097638       -3.9570513075
 H         -1.3320013698       -0.4779326095       -2.2252996824
 H         -1.0579913423       -2.3830967885        0.3111415744
 H         -2.2436455139       -4.5086310131        0.0382546880
 H         -4.7116183628       -4.5215850821       -0.1810205712
 H         -5.9571052909       -2.4410745849       -0.0390467439
  54
        -90.39911653
 C         -6.2534837395       -0.1150965564        0.6708472133
 C         -4.7240436373       -0.1058516720        0.6399339967
 C         -4.2151851692       -0.1167047257        2.1001139532
 C         -4.1690607654        1.1342421626       -0.0294587508
 C         -4.8746895575        2.3230006421       -0.1317601139
 C         -4.2946038074        3.4664230346       -0.6543362115
 C         -2.9808486472        3.4360945175       -1.0889031589
 C         -2.2634167876        2.2606374463       -1.0190034539
 C         -2.8466111953        1.1060962313       -0.4927522542
 N         -2.1261335768       -0.0816643038       -0.4877065777
 C         -0.7229871634       -0.0289921303       -0.6378668639
 C         -0.0997604824       -0.5099661604       -1.7754747419
 C          1.2947157143       -0.6044893472       -1.9099284016
 C          2.0775303136       -0.2013393926       -0.8543259820
 C          1.4412473467        0.3573516022        0.2817686939
 C          2.3839256203        0.7420366592        1.2660730498
 C          1.9308365312        1.3138878411        2.4294274247
 C          0.5428472434        1.4858649493        2.5843364081
 C         -0.3714448897        1.0910642191        1.6373254824
 C          0.0638867901        0.4894066947        0.4334169576
 C          3.6825176161        0.3802126444        0.7393551241
 N          4.8746023561        0.4823536753        1.2888333804
 C          5.9053333431        0.0269646547        0.6067817125
 N          7.1745439483       -0.0325483996        0.8695288497
 O          7.7783052310       -0.6143789120       -0.2059157678
 N          6.8793433004       -0.9348295342       -1.1812307745
 C          5.7091362568       -0.5714100555       -0.7534245634
 N          4.5047654448       -0.6499742907       -1.2793265340
 C          3.4928411682       -0.1975843882       -0.5656326937
 C         -2.7992040674       -1.3003048369       -0.4547355322
 C         -2.1671889814       -2.4899605269       -0.8212705670
 C         -2.8677672817       -3.6775074589       -0.8649067727
 C         -4.2126914241       -3.6973718725       -0.5447106498
 C         -4.8266700245       -2.5348185349       -0.1112663799
 C         -4.1392768180       -1.3342454506       -0.0306023631
 H         -6.6630833694       -0.1039981855       -0.3365347609
 H         -6.6249879160        0.7481820814        1.2157502617
 H         -6.6182509625       -0.9944648734        1.1937634779
 H         -3.1306823103       -0.1905014711        2.1332404507
 H         -4.5202818840        0.7949434277        2.6101017238
 H         -4.6271378870       -0.9722974279        2.6306780050
 H         -5.8960792823        2.3766110725        0.2068873980
 H         -4.8685494093        4.3781499502       -0.7163907250
 H         -2.5187191181        4.3228424048       -1.4949273780
 H         -1.2473749930        2.2246184196       -1.3822726249
 H         -0.7186700540       -0.8322497162       -2.6010407282
 H          1.7253134355       -0.9969740025       -2.8176715444
 H          2.6104534663        1.6277368175        3.2060139556
 H          0.1848580914        1.9461082475        3.4937608981
 H         -1.4246376417        1.2564414233        1.8067375696
 H         -1.1172292717       -2.4939801798       -1.0639890136
 H         -2.3592715592       -4.5841560925       -1.1551911836
 H         -4.7754493323       -4.6163021249       -0.5988944923
 H         -5.8621099593       -2.5844741993        0.1815055507
