  78
       -130.05426117
 C         -3.4977881597        1.3846554125       -2.1963064931
 C         -4.7977039393        1.5020912883       -1.7449311850
 C         -5.3073269518        0.5880831480       -0.8195461818
 C         -6.6859532559        0.7214685781       -0.3899324165
 N         -7.4483662823        1.7452320891       -0.6773767401
 C         -8.6601637739        1.4896973821       -0.1018089405
 C         -9.8324089334        2.2403828410       -0.0909880287
 C        -10.9183932454        1.7199361791        0.5786794351
 C        -10.8601168763        0.4841126897        1.2290717918
 C         -9.7095409366       -0.2779245003        1.2336104549
 C         -8.6130454755        0.2385370090        0.5626615928
 N         -7.3403459540       -0.2219090558        0.3643379209
 C         -4.4803006651       -0.4223486604       -0.3403463090
 C         -3.1627595507       -0.5224808249       -0.7748076969
 C         -2.3348095843       -1.6111838961       -0.2463560151
 N         -2.9788109207       -2.7518525846        0.0241207108
 N         -2.3437828301       -3.7970546714        0.4166829097
 N         -1.0593688009       -3.8246453890        0.5120018043
 C         -0.3316495013       -2.7219415843        0.3323583659
 C          1.1260873783       -2.8761106728        0.4494411682
 C          1.7187427493       -3.9759718840       -0.1683323585
 C          3.0967526101       -4.0804421186       -0.2221647989
 C          3.8952738141       -3.0747944241        0.2896394431
 C          3.3146228762       -1.9827107081        0.9341505175
 C          4.0803654032       -0.8347061127        1.3759987821
 N          3.5452813840        0.2290523616        1.9216015934
 C          4.5599098703        1.1311369570        2.0692782072
 C          4.5458552087        2.4338754775        2.5592976254
 C          5.7342237591        3.1330105780        2.5509487047
 C          6.9191578943        2.5647132055        2.0756506126
 C          6.9582462791        1.2742423004        1.5868839919
 C          5.7671061028        0.5681108454        1.5860063285
 N          5.4289688337       -0.6886521431        1.1655090216
 C          1.9279680674       -1.9217642358        1.0602623749
 C         -0.9528692119       -1.5060371463       -0.0201163473
 C         -0.2298542391       -0.2295640352       -0.0686591375
 C         -0.7040773446        0.8459240842        0.6811291549
 C          0.0349568407        2.0119938811        0.7626049314
 C          1.2712588569        2.1039207159        0.1521300558
 C          1.7588590051        1.0346042211       -0.5988678105
 C          3.1093824043        0.9963360992       -1.1210958528
 N          3.6323796380       -0.0591739154       -1.6939746081
 C          4.9465535888        0.2403917474       -1.9132303887
 C          5.9699622182       -0.5315685143       -2.4555471382
 C          7.2281900102        0.0282834795       -2.5173268226
 C          7.4801852515        1.3251451351       -2.0612196376
 C          6.4812888529        2.1099940857       -1.5213392029
 C          5.2162023840        1.5515413939       -1.4487259241
 N          4.0218630453        2.0093702652       -0.9642151353
 C          0.9749228355       -0.1073727060       -0.7485599017
 C         -2.6767689495        0.3763770853       -1.7218199705
 H         -3.1168839901        2.0812092478       -2.9279563679
 H         -5.4487422327        2.2852705736       -2.0982353305
 H         -9.8761726669        3.1932578953       -0.5931288426
 H        -11.8430460605        2.2772265334        0.6057925609
 H        -11.7383215617        0.1189920613        1.7403365916
 H         -9.6650326238       -1.2326045454        1.7363386321
 H         -6.9702558300       -1.1034418940        0.6751854367
 H         -4.8263961185       -1.1444521859        0.3827454674
 H          1.0882196504       -4.7287283821       -0.6157349930
 H          3.5501283078       -4.9372570893       -0.6975813602
 H          4.9674705512       -3.1481319366        0.1840718817
 H          3.6304713414        2.8684840106        2.9292889591
 H          5.7569480598        4.1468859810        2.9232669823
 H          7.8250962108        3.1520311381        2.0912322905
 H          7.8721170094        0.8370090671        1.2141395725
 H          6.0412160976       -1.3431876229        0.7104112232
 H          1.5097152208       -1.1020720964        1.6202915858
 H         -1.6378703912        0.7569716622        1.2166828235
 H         -0.3435944284        2.8424806287        1.3392797427
 H          1.8557467320        3.0024791640        0.2790112011
 H          5.7711592960       -1.5308067048       -2.8096329251
 H          8.0454530408       -0.5454314836       -2.9296276544
 H          8.4826638949        1.7199105013       -2.1325184160
 H          6.6768429364        3.1089743708       -1.1622154615
 H          3.8717642107        2.8879119920       -0.4991881032
 H          1.3508567068       -0.9036417477       -1.3705101201
 H         -1.6705092898        0.2755933124       -2.0984352421
  78
       -130.05419515
 C         -3.4960424244        1.2866070395       -2.3215799386
 C         -4.7781476489        1.4370768239       -1.8304550853
 C         -5.2761646193        0.5467297963       -0.8763916121
 C         -6.6308978440        0.7241289977       -0.3902503860
 N         -7.3650957597        1.7797618510       -0.6316210915
 C         -8.5559203177        1.5670174659        0.0024007892
 C         -9.6931996034        2.3657756690        0.0822949113
 C        -10.7627239984        1.8843554292        0.8055625732
 C        -10.7221122867        0.6404002967        1.4415668003
 C         -9.6063091323       -0.1692219661        1.3775617103
 C         -8.5262170167        0.3082349884        0.6532965579
 N         -7.2846844563       -0.2007306865        0.3871520464
 C         -4.4567316757       -0.4774343506       -0.4130083625
 C         -3.1555286193       -0.6077684694       -0.8851572637
 C         -2.3269783530       -1.6976318217       -0.3587762743
 N         -2.9654204612       -2.8438988029       -0.1027859318
 N         -2.3248403542       -3.8860152599        0.2914907940
 N         -1.0433510413       -3.8981982770        0.4170240682
 C         -0.3232686629       -2.7867449141        0.2572935053
 C          1.1307547494       -2.9244213044        0.4248121159
 C          1.7566406523       -4.0329216030       -0.1429205707
 C          3.1366394384       -4.1254459267       -0.1397740872
 C          3.9062031327       -3.0994578988        0.3764441484
 C          3.2911405628       -1.9968416466        0.9689594379
 C          4.0247749388       -0.8265565107        1.4064513724
 N          3.4544062334        0.2408459640        1.9073548011
 C          4.4477496192        1.1649871500        2.0614691397
 C          4.3948709445        2.4794124147        2.5160914044
 C          5.5699761109        3.2003991871        2.5249724146
 C          6.7790327585        2.6421432554        2.1012717632
 C          6.8566061484        1.3402617258        1.6488759905
 C          5.6790501985        0.6119912748        1.6303164891
 N          5.3764423472       -0.6615921205        1.2337261841
 C          1.9004393505       -1.9481587233        1.0422001405
 C         -0.9489572314       -1.5794072174       -0.1149303854
 C         -0.2444757382       -0.2924255765       -0.1652941222
 C         -0.7580073578        0.7872596560        0.5521423826
 C         -0.0479263761        1.9716350290        0.6240650036
 C          1.1994165750        2.0785126800        0.0394676270
 C          1.7297861134        1.0031877293       -0.6731757358
 C          3.0963087222        0.9845828454       -1.1534257355
 N          3.6672059037       -0.0756242350       -1.6687746051
 C          4.9800741055        0.2523372991       -1.8531494538
 C          6.0432206485       -0.5103555596       -2.3279024155
 C          7.2878166988        0.0813620333       -2.3642621376
 C          7.4883553234        1.4007293806       -1.9490754207
 C          6.4493916235        2.1771064054       -1.4769133848
 C          5.1977721670        1.5866956184       -1.4293109230
 N          3.9752767489        2.0279673915       -1.0034599143
 C          0.9742313446       -0.1584701840       -0.8177988789
 C         -2.6800738778        0.2697459660       -1.8568670305
 H         -3.1244739240        1.9657527170       -3.0740698914
 H         -5.4232373428        2.2301417031       -2.1724596710
 H         -9.7233814768        3.3249501130       -0.4086987454
 H        -11.6600388628        2.4796850017        0.8874627038
 H        -11.5862861896        0.3068880286        1.9964658429
 H         -9.5755722895       -1.1302670152        1.8690620501
 H         -6.9361776957       -1.1002002392        0.6704485797
 H         -4.7948120560       -1.1818515091        0.3311737970
 H          1.1507129074       -4.8024117432       -0.5957531095
 H          3.6156235839       -4.9896710826       -0.5750982195
 H          4.9824005609       -3.1648823229        0.3147817603
 H          3.4606063785        2.9054501484        2.8467741237
 H          5.5628741057        4.2241388151        2.8700463771
 H          7.6732242737        3.2467482094        2.1283083313
 H          7.7891420708        0.9112880366        1.3148976591
 H          6.0130259908       -1.3157123010        0.8125906909
 H          1.4542109839       -1.1199348126        1.5667351505
 H         -1.7003134278        0.6888439549        1.0706172299
 H         -0.4584299948        2.8055916896        1.1731825590
 H          1.7601212713        2.9930887459        0.1590700137
 H          5.8845492157       -1.5272579629       -2.6508394794
 H          8.1349490999       -0.4845195532       -2.7236024722
 H          8.4823030493        1.8198211921       -1.9971041069
 H          6.6049486150        3.1935892745       -1.1486537957
 H          3.7853965344        2.9207985052       -0.5825274576
 H          1.3835424968       -0.9603150076       -1.4108704821
 H         -1.6850494886        0.1470680915       -2.2566879483
  78
       -130.05220789
 C         -3.4943552384        1.1907726066       -2.3415744981
 C         -4.7855923231        1.3601090132       -1.8820352414
 C         -5.3058997424        0.5038644891       -0.9083637121
 C         -6.6710041783        0.7003410240       -0.4609060065
 N         -7.4020623414        1.7384493716       -0.7763030022
 C         -8.6076010441        1.5550168345       -0.1616331430
 C         -9.7495759783        2.3512943205       -0.1551032837
 C        -10.8355942399        1.9042094088        0.5652531121
 C        -10.8068542287        0.6967633313        1.2691477839
 C         -9.6869039424       -0.1094179723        1.2785105581
 C         -8.5902173995        0.3335614315        0.5570848723
 N         -7.3406565444       -0.1838049886        0.3498526919
 C         -4.4988080295       -0.5046585819       -0.3926224015
 C         -3.1880933856       -0.6532057821       -0.8332185628
 C         -2.3745200855       -1.7241680339       -0.2506976426
 N         -3.0232016162       -2.8522734959        0.0531239385
 N         -2.3951557305       -3.8797931044        0.5025388040
 N         -1.1151886863       -3.8988224708        0.6321733532
 C         -0.3837944300       -2.8015193606        0.4260229232
 C          1.0679726637       -2.9561195794        0.6018686485
 C          1.6644544079       -4.1062518738        0.0896631039
 C          3.0431033048       -4.2376094254        0.1025142035
 C          3.8326889619       -3.2064020236        0.5699557869
 C          3.2473676130       -2.0549689761        1.1065547435
 C          4.1093351774       -0.9390548139        1.4437723956
 N          5.4087536269       -0.9616098990        1.2844861373
 C          5.8457708417        0.3066830129        1.5377019097
 C          7.1256208464        0.8496934018        1.4743856401
 C          7.2590949413        2.1945440103        1.7377646428
 C          6.1601505880        2.9951561709        2.0622482950
 C          4.8835773657        2.4785082421        2.1372976515
 C          4.7405493287        1.1276163406        1.8700266174
 N          3.6511166777        0.3008496602        1.8189039468
 C          1.8589779122       -1.9651045015        1.1745403322
 C         -0.9967265072       -1.6066591672        0.0017248019
 C         -0.2906526066       -0.3223536665       -0.0878977375
 C         -0.8111851402        0.7703176227        0.6027459190
 C         -0.1181596059        1.9690025231        0.6300796929
 C          1.1181465855        2.0693124742        0.0256062929
 C          1.6613389929        0.9768453980       -0.6584131852
 C          3.0291038424        1.0808736732       -1.1267327002
 N          3.7132451353        2.1965006104       -1.1154930450
 C          4.9887226220        1.8633531216       -1.4700356489
 C          6.1294117185        2.6527297157       -1.5814808898
 C          7.3077743979        2.0233464131       -1.9148911035
 C          7.3697676388        0.6447640230       -2.1383168438
 C          6.2519277845       -0.1570155931       -2.0399609846
 C          5.0632667754        0.4684011462       -1.7039666298
 N          3.7930663609        0.0014226538       -1.4994619508
 C          0.9247438770       -0.2007920820       -0.7559644820
 C         -2.6909488226        0.1890142969       -1.8253014026
 H         -3.1053341184        1.8425480912       -3.1091586336
 H         -5.4216870527        2.1418907019       -2.2641921407
 H         -9.7700472158        3.2820983923       -0.6983478251
 H        -11.7371015882        2.4981037237        0.5908823118
 H        -11.6839455541        0.3896060682        1.8188298657
 H         -9.6649010926       -1.0419330065        1.8225849406
 H         -6.9972834321       -1.0655635820        0.6894528016
 H         -4.8537295939       -1.1831697658        0.3672734843
 H          1.0353523473       -4.8787672544       -0.3239462722
 H          3.4993720442       -5.1359120516       -0.2849349311
 H          4.9091003706       -3.2540370801        0.5310038500
 H          7.9697073426        0.2314088610        1.2163457601
 H          8.2367120423        2.6502736095        1.6890863242
 H          6.3167433594        4.0459739398        2.2541247278
 H          4.0331945232        3.0979424552        2.3784635589
 H          2.6946340215        0.5819368822        1.9483213106
 H          1.3887088088       -1.1259453160        1.6629053847
 H         -1.7495322825        0.6723366578        1.1278081069
 H         -0.5368190967        2.8152164140        1.1533599488
 H          1.7022531336        2.9739179163        0.0754356878
 H          6.0793017555        3.7141411616       -1.4015935699
 H          8.2135648061        2.6044751065       -2.0026620792
 H          8.3197856774        0.1979544122       -2.3902168886
 H          6.3006180855       -1.2228183836       -2.2023760011
 H          3.5157382529       -0.9651067227       -1.5017726710
 H          1.2940925125       -1.0342888080       -1.3352347385
 H         -1.6897287653        0.0508019054       -2.2031529507
  78
       -130.05103370
 C         -3.5295894111        1.3953489896       -2.2167716158
 C         -4.8212509983        1.5135625854       -1.7426970757
 C         -5.3176453333        0.5960370739       -0.8133678419
 C         -6.6875260335        0.7320523569       -0.3577140759
 N         -7.4530777852        1.7569570060       -0.6321316107
 C         -8.6533575836        1.5062563815       -0.0309894689
 C         -9.8227768076        2.2607870909        0.0027140959
 C        -10.8957800830        1.7454387412        0.6965580749
 C        -10.8275897071        0.5107592431        1.3485987466
 C         -9.6796967275       -0.2551322682        1.3305952486
 C         -8.5959510434        0.2565230774        0.6354527991
 N         -7.3290153835       -0.2082372630        0.4115645713
 C         -4.4853503090       -0.4190540628       -0.3539772726
 C         -3.1752084707       -0.5197513489       -0.8107112444
 C         -2.3441498141       -1.6128182065       -0.2971900124
 N         -2.9900065993       -2.7521640793       -0.0266249429
 N         -2.3572808623       -3.8027872830        0.3553753990
 N         -1.0740448730       -3.8310275088        0.4635918394
 C         -0.3454413867       -2.7283197130        0.2884774668
 C          1.1097784982       -2.8851353238        0.4440276779
 C          1.7186086711       -4.0009223353       -0.1299873985
 C          3.0974325779       -4.1164317046       -0.1255494922
 C          3.8841440484       -3.1061861621        0.3989493799
 C          3.2865651082       -1.9945460552        0.9960339038
 C          4.0363319674       -0.8321466534        1.4292220988
 N          3.4747322904        0.2401312875        1.9275904549
 C          4.4695510949        1.1657782414        2.0563821940
 C          4.4241713415        2.4846864667        2.4981961289
 C          5.5988214493        3.2032195740        2.4782192245
 C          6.8002380882        2.6412235040        2.0365279696
 C          6.8711440578        1.3355288648        1.5973437069
 C          5.6931150518        0.6082669731        1.6120061987
 N          5.3865184369       -0.6705231727        1.2320046442
 C          1.8947613492       -1.9229673237        1.0640429684
 C         -0.9587678668       -1.5149364295       -0.0836624310
 C         -0.2193182195       -0.2497505015       -0.1650785276
 C         -0.6651755542        0.8508566222        0.5625529028
 C          0.0965769828        2.0063197624        0.6077055372
 C          1.3288330107        2.0541813118       -0.0113424668
 C          1.7919603585        0.9547822289       -0.7367132700
 C          3.1593606919        0.9629043492       -1.2140981891
 N          3.9510982107        2.0017600064       -1.1803132604
 C          5.1876401297        1.5515207753       -1.5445151747
 C          6.4031839559        2.2215971498       -1.6353008223
 C          7.5147202146        1.4851654988       -1.9851975978
 C          7.4390220124        0.1149072911       -2.2475335710
 C          6.2428817307       -0.5709970976       -2.1698727894
 C          5.1223461013        0.1619794374       -1.8163553671
 N          3.8126807868       -0.1792493673       -1.6176383590
 C          0.9847344883       -0.1719418271       -0.8579618337
 C         -2.7030674330        0.3829027335       -1.7610322545
 H         -3.1587451788        2.0951267816       -2.9503682868
 H         -5.4760689566        2.3002958327       -2.0806388572
 H         -9.8737739914        3.2126202026       -0.5004451792
 H        -11.8179359809        2.3055932251        0.7417493382
 H        -11.6960270811        0.1493469396        1.8786690539
 H         -9.6276992519       -1.2088718418        1.8340681816
 H         -6.9547801873       -1.0895177851        0.7180276710
 H         -4.8207163669       -1.1439346676        0.3711758909
 H          1.1010798297       -4.7604619433       -0.5833135119
 H          3.5629503558       -4.9874587097       -0.5623053987
 H          4.9598849714       -3.1911160832        0.3450765959
 H          3.4948215297        2.9164148513        2.8326542803
 H          5.5980084698        4.2316307876        2.8075186823
 H          7.6935963503        3.2474906334        2.0356486211
 H          7.7959909038        0.9032276642        1.2458711714
 H          6.0269494848       -1.3322728341        0.8289953413
 H          1.4637594323       -1.0853868177        1.5862742208
 H         -1.5949576722        0.7887502527        1.1085862810
 H         -0.2624409451        2.8575963390        1.1655557453
 H          1.9704717477        2.9160290892        0.0687554798
 H          6.4610901087        3.2768938742       -1.4256957173
 H          8.4748840059        1.9740290137       -2.0579030850
 H          8.3385634886       -0.4194764307       -2.5157608591
 H          6.1823516316       -1.6306269155       -2.3744218018
 H          3.4277687772       -1.1070625313       -1.6606702735
 H          1.2890465034       -1.0074431502       -1.4721659277
 H         -1.7029429480        0.2847599075       -2.1537962014
