  78
  -129.593776713800       0.643036615060445      !
 C         -3.4922952825        1.2191954424       -2.3632265765
 C         -4.7762850309        1.3783418760       -1.8798206159
 C         -5.2748780639        0.5105924643       -0.9054532370
 C         -6.6315506096        0.6963404431       -0.4279145783
 N         -7.3677731238        1.7436778232       -0.6975957598
 C         -8.5599671239        1.5435136110       -0.0620528416
 C         -9.6995756573        2.3409375082       -0.0054010079
 C        -10.7700386375        1.8747217888        0.7263885114
 C        -10.7281085099        0.6470382198        1.3931793171
 C         -9.6099959882       -0.1609101815        1.3526169099
 C         -8.5289519338        0.3013472470        0.6199601317
 N         -7.2852818330       -0.2107127226        0.3702376341
 C         -4.4541819679       -0.4995495456       -0.4143548529
 C         -3.1512053102       -0.6380444133       -0.8792332913
 C         -2.3214121548       -1.7122780548       -0.3234995250
 N         -2.9576255553       -2.8535607982       -0.0410573506
 N         -2.3155226558       -3.8838459517        0.3808669187
 N         -1.0343952846       -3.8894553522        0.5104936178
 C         -0.3167450634       -2.7803676722        0.3253889441
 C          1.1371157958       -2.9099246894        0.5006171908
 C          1.7676375865       -4.0304733726       -0.0375643761
 C          3.1478581807       -4.1191689474       -0.0279984500
 C          3.9131484055       -3.0786209865        0.4649029524
 C          3.2933895782       -1.9633106442        1.0280377224
 C          4.0226129274       -0.7805600433        1.4385498570
 N          3.4479198068        0.2973957745        1.9111086574
 C          4.4383611760        1.2277508745        2.0452150524
 C          4.3806475721        2.5529003663        2.4669250222
 C          5.5538256155        3.2770522861        2.4614272027
 C          6.7656306385        2.7117219488        2.0553236440
 C          6.8479990652        1.3992341137        1.6356020599
 C          5.6724189239        0.6675541171        1.6315978011
 N          5.3743645068       -0.6162856115        1.2658257927
 C          1.9023482383       -1.9165770562        1.0958908873
 C         -0.9444571354       -1.5843255696       -0.0785441777
 C         -0.2432020310       -0.2970937005       -0.1587178517
 C         -0.7617522356        0.7986650137        0.5301715369
 C         -0.0550022303        1.9863707250        0.5748085345
 C          1.1938363030        2.0820794655       -0.0085297186
 C          1.7291982140        0.9908439726       -0.6926853169
 C          3.0972256829        0.9640187983       -1.1682392030
 N          3.6724725391       -0.1071007300       -1.6554158784
 C          4.9850334279        0.2197265186       -1.8439460640
 C          6.0516215376       -0.5516368838       -2.2964498197
 C          7.2947670622        0.0423514088       -2.3437592320
 C          7.4905762201        1.3721468003       -1.9608376507
 C          6.4481427921        2.1571910684       -1.5111912478
 C          5.1979361454        1.5647690863       -1.4526960231
 N          3.9729926307        2.0131687703       -1.0415804482
 C          0.9771373219       -0.1760771861       -0.8106996960
 C         -2.6750867665        0.2163778686       -1.8709905011
 H         -3.1202117146        1.8804678392       -3.1312212162
 H         -5.4224041433        2.1609373198       -2.2433233207
 H         -9.7307723234        3.2875538622       -0.5201296516
 H        -11.6691574211        2.4694773262        0.7908102539
 H        -11.5930961236        0.3250622217        1.9535968398
 H         -9.5782410003       -1.1093824944        1.8679001489
 H         -6.9352848997       -1.1019357489        0.6768041492
 H         -4.7926860437       -1.1862012964        0.3460616955
 H          1.1651157911       -4.8125898009       -0.4729747511
 H          3.6304343964       -4.9926305954       -0.4403126231
 H          4.9896970358       -3.1426519149        0.4080998118
 H          3.4442632549        2.9844876625        2.7841415206
 H          5.5429851718        4.3090129603        2.7809721223
 H          7.6581470023        3.3192209557        2.0700236186
 H          7.7826725191        0.9646253727        1.3151586558
 H          6.0139446902       -1.2789307133        0.8629539675
 H          1.4523493964       -1.0768044058        1.5983792117
 H         -1.7053765448        0.7105982472        1.0481097134
 H         -0.4693667444        2.8325804126        1.1018362723
 H          1.7517730022        3.0008495809        0.0900196713
 H          5.8966043315       -1.5766604969       -2.5945298878
 H          8.1444741475       -0.5299820030       -2.6864151613
 H          8.4835637346        1.7925976136       -2.0162785426
 H          6.6000304220        3.1819188928       -1.2077892167
 H          3.7794869628        2.9156502384       -0.6434990713
 H          1.3903594586       -0.9912784409       -1.3824680466
 H         -1.6785273300        0.0865050383       -2.2646686688
  78
  -129.593160764600       0.335092763899202      !
 C         -3.4946807992        1.3203157441       -2.2404301552
 C         -4.7962729078        1.4454046081       -1.7959949556
 C         -5.3063222360        0.5532588349       -0.8497447236
 C         -6.6865995709        0.6935402518       -0.4276952603
 N         -7.4508126502        1.7077993487       -0.7427292937
 C         -8.6636886396        1.4633517329       -0.1646232164
 C         -9.8379256970        2.2109103228       -0.1759347986
 C        -10.9245823841        1.7043064907        0.5031903501
 C        -10.8650530193        0.4851565446        1.1842158368
 C         -9.7125021642       -0.2734277219        1.2110990761
 C         -8.6153200493        0.2291887645        0.5308232228
 N         -7.3408176521       -0.2326004793        0.3477897195
 C         -4.4781171848       -0.4427423318       -0.3431526731
 C         -3.1589969272       -0.5500658187       -0.7710558761
 C         -2.3298134351       -1.6230898000       -0.2132826462
 N         -2.9716449533       -2.7584316809        0.0834858715
 N         -2.3350806967       -3.7918590030        0.5037561122
 N         -1.0508959288       -3.8136128273        0.6035688909
 C         -0.3255250731       -2.7137452839        0.3987974730
 C          1.1322465481       -2.8610308096        0.5240259635
 C          1.7296682976       -3.9742738815       -0.0644944857
 C          3.1081053746       -4.0763302612       -0.1115992428
 C          3.9024196926       -3.0561476830        0.3774807630
 C          3.3169409895       -1.9499841375        0.9929592583
 C          4.0783173419       -0.7893124947        1.4084751367
 N          3.5387816208        0.2862043000        1.9259152366
 C          4.5505854188        1.1944074069        2.0541967852
 C          4.5316180193        2.5088564578        2.5116988585
 C          5.7181692725        3.2107719254        2.4895582960
 C          6.9060359367        2.6340584424        2.0320504476
 C          6.9500008629        1.3319717782        1.5755712338
 C          5.7607245380        0.6228258118        1.5886533962
 N          5.4271699222       -0.6448875354        1.1984583234
 C          1.9297523446       -1.8896685412        1.1133748890
 C         -0.9488511192       -1.5086372151        0.0144081685
 C         -0.2290406944       -0.2318154543       -0.0636290037
 C         -0.7083705322        0.8606558912        0.6578236960
 C          0.0273512557        2.0303767593        0.7125515868
 C          1.2652672005        2.1104677200        0.1036818605
 C          1.7579614855        1.0241721553       -0.6190931760
 C          3.1101696744        0.9766055319       -1.1361719506
 N          3.6376804074       -0.0913744945       -1.6811202561
 C          4.9517280505        0.2062040918       -1.9038120459
 C          5.9788092739       -0.5762067882       -2.4237473308
 C          7.2357476405       -0.0146679017       -2.4956374028
 C          7.4829469983        1.2937825344       -2.0710959404
 C          6.4803514550        2.0890837738       -1.5538427244
 C          5.2165177017        1.5291939613       -1.4711776601
 N          4.0195074205        1.9956764661       -1.0017472658
 C          0.9774833034       -0.1232764142       -0.7427480575
 C         -2.6724740232        0.3263342818       -1.7386213682
 H         -3.1133709489        1.9995329550       -2.9879952358
 H         -5.4482801310        2.2178212287       -2.1705661996
 H         -9.8826535415        3.1509161343       -0.7016914197
 H        -11.8507717829        2.2596020372        0.5137042781
 H        -11.7438551213        0.1304619235        1.7017550426
 H         -9.6670268081       -1.2152213859        1.7374898864
 H         -6.9693687290       -1.1051508163        0.6815180965
 H         -4.8245254635       -1.1476196660        0.3965949391
 H          1.1024908827       -4.7395935332       -0.4949653465
 H          3.5651764014       -4.9434475102       -0.5642537214
 H          4.9751225419       -3.1291890068        0.2769705351
 H          3.6139716878        2.9500377790        2.8680554786
 H          5.7370975269        4.2336276286        2.8366729142
 H          7.8103793285        3.2240233749        2.0357631295
 H          7.8661493623        0.8880942081        1.2165229866
 H          6.0425187661       -1.3088558105        0.7615723627
 H          1.5076427329       -1.0574691926        1.6516416298
 H         -1.6435588757        0.7824960240        1.1926260115
 H         -0.3551362562        2.8738872933        1.2673095715
 H          1.8470066485        3.0134698827        0.2099762373
 H          5.7837097456       -1.5844525049       -2.7535246139
 H          8.0557679299       -0.5962263898       -2.8911322142
 H          8.4846002361        1.6893603149       -2.1491705938
 H          6.6721874564        3.0971878596       -1.2190323720
 H          3.8656855699        2.8850739650       -0.5591116440
 H          1.3574020331       -0.9337099189       -1.3436241096
 H         -1.6648077075        0.2189546095       -2.1096107704
  78
  -129.590030272000       1.220366455569155E-002 !
 C         -3.5262082467        1.3359425356       -2.2583599254
 C         -4.8195142008        1.4620196864       -1.7908398286
 C         -5.3165660579        0.5649199976       -0.8421223656
 C         -6.6880766282        0.7081905330       -0.3936516822
 N         -7.4551204857        1.7247548711       -0.6937261308
 C         -8.6565891333        1.4851435038       -0.0904403332
 C         -9.8277927854        2.2375440517       -0.0774301816
 C        -10.9016630856        1.7357771548        0.6249742441
 C        -10.8326104170        0.5165487690        1.3053816958
 C         -9.6829533210       -0.2468989803        1.3082663351
 C         -8.5983285942        0.2511709233        0.6046794543
 N         -7.3297028844       -0.2156758900        0.3951634877
 C         -4.4833428974       -0.4374338591       -0.3571578008
 C         -3.1716469000       -0.5455586637       -0.8076909714
 C         -2.3396435250       -1.6246279990       -0.2668236539
 N         -2.9837304329       -2.7589537735        0.0279687378
 N         -2.3497688910       -3.7990676975        0.4358057444
 N         -1.0667950321       -3.8218507400        0.5483309553
 C         -0.3401591640       -2.7217713504        0.3500427349
 C          1.1149474739       -2.8716116965        0.5133352955
 C          1.7279585123       -3.9988688178       -0.0331598933
 C          3.1070193338       -4.1110586669       -0.0221071225
 C          3.8899223088       -3.0872258062        0.4813203957
 C          3.2881042021       -1.9635590140        1.0510064077
 C          4.0339885732       -0.7897938409        1.4595483863
 N          3.4685268225        0.2923387856        1.9315517604
 C          4.4608840028        1.2229947052        2.0419185807
 C          4.4112505999        2.5515871727        2.4532048100
 C          5.5843382784        3.2721856188        2.4201146778
 C          6.7883012742        2.7029787172        1.9948979148
 C          6.8634233606        1.3877156733        1.5860106915
 C          5.6869919580        0.6582609846        1.6139785111
 N          5.3843803846       -0.6296189601        1.2625551389
 C          1.8959501494       -1.8936553850        1.1133524378
 C         -0.9551157997       -1.5186695086       -0.0516172731
 C         -0.2182728555       -0.2539796820       -0.1599312239
 C         -0.6687277835        0.8620039233        0.5409562511
 C          0.0902936822        2.0199565842        0.5617602438
 C          1.3242460791        2.0564457987       -0.0546779907
 C          1.7919615733        0.9417617132       -0.7532835246
 C          3.1607318587        0.9420857446       -1.2267957235
 N          3.9500331328        1.9832703549       -1.2145931564
 C          5.1886434642        1.5276501992       -1.5648060027
 C          6.4029406397        2.1982741946       -1.6674559000
 C          7.5171467111        1.4565771557       -1.9971565483
 C          7.4452928488        0.0804877131       -2.2281820984
 C          6.2504730370       -0.6062164654       -2.1382343936
 C          5.1272648130        0.1320886736       -1.8048606205
 N          3.8177926575       -0.2075156674       -1.6021284126
 C          0.9876253340       -0.1893110914       -0.8509535961
 C         -2.6987533417        0.3361357134       -1.7771229093
 H         -3.1547898360        2.0195545098       -3.0067592249
 H         -5.4751044268        2.2392739948       -2.1486353067
 H         -9.8794532962        3.1774580253       -0.6024531861
 H        -11.8252023996        2.2946883606        0.6546423330
 H        -11.7017823253        0.1653910129        1.8411104336
 H         -9.6302891638       -1.1887093978        1.8336495573
 H         -6.9543891276       -1.0888233050        0.7228525899
 H         -4.8192023086       -1.1462537515        0.3834785545
 H          1.1134658970       -4.7700379283       -0.4707028969
 H          3.5757677209       -4.9908019180       -0.4374110218
 H          4.9660042636       -3.1708831594        0.4325046660
 H          3.4799589088        2.9887287840        2.7749900234
 H          5.5802528080        4.3078790608        2.7257137961
 H          7.6802951225        3.3111292037        1.9826688454
 H          7.7902632099        0.9496004936        1.2472158528
 H          6.0274722900       -1.2989617501        0.8766871948
 H          1.4615422480       -1.0453082121        1.6149758891
 H         -1.5999626111        0.8102970414        1.0855960701
 H         -0.2722657343        2.8829800531        1.0988856468
 H          1.9637113527        2.9213856276        0.0074573255
 H          6.4578639423        3.2582346101       -1.4819674972
 H          8.4764194367        1.9458611961       -2.0783051525
 H          8.3468129581       -0.4578307543       -2.4814831596
 H          6.1929207315       -1.6703988439       -2.3185761239
 H          3.4350919329       -1.1369592459       -1.6249551012
 H          1.2956087680       -1.0379833256       -1.4449372455
 H         -1.6972655869        0.2313163089       -2.1646531498
  78
  -129.589810064200       9.666956484661808E-003 !
 C         -3.4910030840        1.1389685020       -2.3721461342
 C         -4.7837084423        1.3142824464       -1.9190211699
 C         -5.3046645743        0.4755360985       -0.9305779419
 C         -6.6712624476        0.6776028249       -0.4902248574
 N         -7.4036546172        1.7080322404       -0.8269846737
 C         -8.6103253710        1.5337553717       -0.2118721962
 C         -9.7539315983        2.3276345450       -0.2231805721
 C        -10.8408056884        1.8920019922        0.5028792815
 C        -10.8113387672        0.6981554567        1.2295717043
 C         -9.6897759974       -0.1053708337        1.2569039883
 C         -8.5922226928        0.3261589306        0.5298785749
 N         -7.3411053208       -0.1924339299        0.3355019136
 C         -4.4967921680       -0.5213636872       -0.3938863082
 C         -3.1846982580       -0.6754931529       -0.8284180156
 C         -2.3703814120       -1.7335435371       -0.2237613024
 N         -3.0175102227       -2.8570453934        0.0997894601
 N         -2.3884809450       -3.8745662367        0.5700929825
 N         -1.1088004874       -3.8884740292        0.7031620132
 C         -0.3791368629       -2.7937483585        0.4780478764
 C          1.0725051179       -2.9419702246        0.6603017626
 C          1.6725848908       -4.1003454300        0.1714046002
 C          3.0514625743       -4.2285656634        0.1900766047
 C          3.8377953309       -3.1870551769        0.6398238136
 C          3.2488132589       -2.0268945855        1.1531123343
 C          4.1076753614       -0.9030064174        1.4712310524
 N          5.4075248305       -0.9258664738        1.3155457086
 C          5.8413351192        0.3478983967        1.5457648908
 C          7.1202288565        0.8922767474        1.4752788132
 C          7.2503167229        2.2421458039        1.7134755164
 C          6.1489501058        3.0464655708        2.0200851238
 C          4.8732506113        2.5286737669        2.1018110535
 C          4.7336307217        1.1726709666        1.8598142632
 N          3.6460124698        0.3428184999        1.8217144744
 C          1.8600804949       -1.9386503946        1.2160241657
 C         -0.9934548478       -1.6084104728        0.0297254264
 C         -0.2897787186       -0.3245637905       -0.0824831888
 C         -0.8142315128        0.7798958005        0.5860911177
 C         -0.1237170022        1.9803235747        0.5924066935
 C          1.1138652281        2.0717499435       -0.0108632450
 C          1.6609610744        0.9676670649       -0.6727636020
 C          3.0296588872        1.0656614211       -1.1396566703
 N          3.7114978696        2.1827232166       -1.1478815371
 C          4.9885189827        1.8455820791       -1.4929662465
 C          6.1278693319        2.6350814348       -1.6165729329
 C          7.3083272369        2.0019559064       -1.9351565424
 C          7.3736761260        0.6195242352       -2.1322956479
 C          6.2572323425       -0.1825760329       -2.0214858747
 C          5.0664778804        0.4466111139       -1.7002684343
 N          3.7967316820       -0.0190571111       -1.4900355519
 C          0.9270070384       -0.2131366459       -0.7497877814
 C         -2.6868310354        0.1488346426       -1.8350597857
 H         -3.1014231458        1.7769096370       -3.1509867465
 H         -5.4204516558        2.0873659762       -2.3174467533
 H         -9.7749616811        3.2479466554       -0.7839954065
 H        -11.7435805155        2.4843967690        0.5150797824
 H        -11.6891521190        0.3996302446        1.7828452222
 H         -9.6672128678       -1.0273747033        1.8185846073
 H         -6.9967740431       -1.0668910476        0.6925625056
 H         -4.8521993887       -1.1861101776        0.3778560787
 H          1.0460758835       -4.8818579138       -0.2290287067
 H          3.5105105777       -5.1330878123       -0.1791932364
 H          4.9143940214       -3.2331776867        0.6043858907
 H          7.9662043328        0.2709783612        1.2310326772
 H          8.2271207837        2.6989069601        1.6585454211
 H          6.3029309627        4.1010500640        2.1924141332
 H          4.0210179775        3.1507891768        2.3291492882
 H          2.6886441840        0.6243125626        1.9434724722
 H          1.3869044254       -1.0913803318        1.6872772194
 H         -1.7536656620        0.6899155210        1.1106413619
 H         -0.5453839492        2.8354152668        1.0985599594
 H          1.6960046694        2.9783505139        0.0232470249
 H          6.0751564255        3.6996004475       -1.4569316638
 H          8.2131458232        2.5832040778       -2.0317197611
 H          8.3252184184        0.1700064387       -2.3733926219
 H          6.3084915654       -1.2511578954       -2.1635783322
 H          3.5213783213       -0.9860324208       -1.4747211220
 H          1.2994751852       -1.0566757246       -1.3122809274
 H         -1.6844054787        0.0055811635       -2.2078030012
