57
 energy: -96.308823076299 gnorm: 0.000089309603 xtb: 6.7.1 (edcfbbe)
F           -2.53351990701348        2.43455924356016        1.05337758217230
C           -1.52184418980002        1.63024830027939        0.67180343493588
C           -0.23694835151296        2.05619511227173        0.83362381453661
C            0.81580717507582        1.19162643946754        0.47566205124010
N            2.09018809366441        1.54353849159087        0.71050252418615
C            3.05011179711868        0.72238355750340        0.35187270229009
C            4.41155004206166        1.08259737382911        0.76103893948239
C            5.30293511238495        0.11983220078190        1.23070007119984
C            6.57426917393399        0.48810252326126        1.62719790135971
C            6.97118236498264        1.81393686915316        1.55889217781144
C            6.08324209360220        2.77806502538580        1.11032685351001
C            4.80738992645611        2.41757491461015        0.72113059154342
C            2.74917309036399       -0.47794393024859       -0.37463989008990
C            3.78468387169913       -1.30071667393777       -1.00961694350538
C            4.86625649728860       -0.71878258634043       -1.66773583205646
C            5.81892327603606       -1.51607543308702       -2.27275813442535
C            5.70623135640794       -2.89638281299319       -2.22742673873009
C            4.62327730094645       -3.48008072458548       -1.59058888540263
C            3.66233307181391       -2.68807459862933       -0.99170434443995
N            1.50799438402136       -0.87485185756870       -0.52517860491692
C            0.51466978032956       -0.08403007689719       -0.07785276954680
C           -0.82323113139542       -0.48835536663263       -0.22146083216623
C           -1.84772439260287        0.35215112580235        0.14835101211950
N           -3.19343318676498       -0.02545608836243        0.02722813075361
C           -3.71182029958431       -1.10804503394639        0.74763684438220
C           -2.92563660214631       -1.90964210601018        1.56488591475228
C           -3.48104748573812       -2.96484472458027        2.27246745709206
C           -4.83161535142456       -3.23314116790200        2.18058098759321
C           -5.63469610883308       -2.42690000374874        1.38886420936114
C           -5.08733882094724       -1.36957054292239        0.68478919641035
O           -5.95565740602187       -0.59970295350582       -0.04534399357069
C           -5.42462534385797        0.42430356272392       -0.78729277670326
C           -6.29833894602068        1.15164337870059       -1.57429201865194
C           -5.82619494910480        2.17942553277155       -2.37643222478534
C           -4.47423662856652        2.45564163800537       -2.40542159397139
C           -3.59420187780982        1.72697630731172       -1.62067209021155
C           -4.05742157083058        0.72410791920809       -0.77941419596059
H           -0.01756537338657        3.02335716128598        1.25547427867324
H            4.99317220642414       -0.91249721266677        1.30219300620274
H            7.25867817323553       -0.26302131975444        1.99299430007893
H            7.96868095751697        2.09547548745088        1.86221459344275
H            6.38653857373262        3.81376106613812        1.06637977453028
H            4.10352108000135        3.15846295194700        0.37411112085572
H            4.95039358441240        0.35681868694591       -1.72009290519129
H            6.65313128113405       -1.05816858627121       -2.78342052720721
H            6.45772270082326       -3.51532762233921       -2.69481050495773
H            4.52705805033432       -4.55554178260312       -1.56369614081808
H            2.81057345566471       -3.12868778319339       -0.49655081484924
H           -1.02977940554818       -1.45861684390940       -0.64518988019221
H           -1.87143282987321       -1.70390391670762        1.66259484910976
H           -2.84455341086672       -3.57135805154577        2.89810902192759
H           -5.26782685135584       -4.05526162279686        2.72552404468867
H           -6.69673744959168       -2.59522349805935        1.30952492394255
H           -7.34553143405656        0.89650103102701       -1.54486017452095
H           -6.51571776422023        2.74686835348342       -2.98125227393988
H           -4.08961521805971        3.23770903658312       -3.04157341361448
H           -2.53735344446258        1.94132144260206       -1.66814618759811
