57
 energy: -96.260119423063 gnorm: 0.000049178007 xtb: 6.7.1 (edcfbbe)
F           -2.54230426713355        2.40861561658125        1.17390289724995
C           -1.54131411686212        1.59476842719709        0.76509052762875
C           -0.23113876794902        2.00422136593674        0.94176100177774
C            0.81366086859877        1.17269735554605        0.54248497028479
N            2.08966036578942        1.49197733347215        0.72557419738940
C            3.08449007922038        0.69157306689313        0.33974282671676
C            4.44355573224828        1.08783156376244        0.70641832822123
C            5.37759694293349        0.16055016138078        1.16806579862730
C            6.64415600581712        0.57281452260090        1.53279743791619
C            6.99659173672139        1.91081840186465        1.45013223163305
C            6.06635529135228        2.84074271140900        1.01535444928419
C            4.79682129165932        2.43613877768375        0.65126413828591
C            2.78086034829187       -0.49406363461190       -0.35438955259180
C            3.79956581634310       -1.34955366062144       -0.96522598887127
C            4.88762397364858       -0.81046976108077       -1.65082289635119
C            5.81719957220173       -1.64296927995478       -2.24263402548140
C            5.67383437787149       -3.01949434838235       -2.16597946305457
C            4.58284233363866       -3.56137384433741       -1.50645392277318
C            3.64761946878356       -2.73469130218636       -0.91433295952921
N            1.50998392267812       -0.85998538087964       -0.50067551059797
C            0.49984328265177       -0.09885051512051       -0.07460764107836
C           -0.82972424188300       -0.46739904576947       -0.23323750738781
C           -1.86333087791707        0.37390010775517        0.18784305883060
N           -3.21759778641036       -0.00905201651748        0.02967344888980
C           -3.76684026336216       -0.99353654737586        0.83956483669416
C           -3.01168054196374       -1.68563512011396        1.78138314094700
C           -3.59370829134388       -2.66420376284438        2.56853703827293
C           -4.93719026855294       -2.96480435940153        2.43454909518618
C           -5.70748988099044       -2.27436794765358        1.51249147984464
C           -5.13394591676925       -1.29393417584084        0.72186646262608
O           -5.95260935900760       -0.63878436440105       -0.15696688447527
C           -5.39598135942714        0.33542461422605       -0.94105349151954
C           -6.23098248391758        0.99113099256412       -1.82844425649039
C           -5.72393702418847        1.97189209923292       -2.66573438297690
C           -4.37703774010437        2.28409144302947       -2.62096675070707
C           -3.53569041992776        1.63342577685249       -1.73579102105221
C           -4.03218042428847        0.66221861200400       -0.87232043210430
H           -0.01536785900284        2.95117258411369        1.40662577795272
H            5.10407172426055       -0.88066220269132        1.25320415775372
H            7.35980711769120       -0.15322237123344        1.88984095108495
H            7.98957630462853        2.22774711391928        1.73247750044525
H            6.33179246926490        3.88652598562348        0.96118234884698
H            4.06519897373803        3.15465782449861        0.31377561191609
H            4.99571424798783        0.26114971092545       -1.72890473405011
H            6.65636089280635       -1.21580069319941       -2.77177476622346
H            6.40564027062003       -3.66653109145950       -2.62641639353344
H            4.45999566461529       -4.63343250135040       -1.45463636036133
H            2.79316034618830       -3.14871970585819       -0.40051389053061
H           -1.06141677709889       -1.40858694576519       -0.70466752117879
H           -1.96573164911683       -1.45013607423679        1.89724062166035
H           -2.98870383872979       -3.18900363820635        3.29143967015755
H           -5.39132581867347       -3.72735914521966        3.04711732435321
H           -6.75963503492464       -2.47717131915402        1.39313862592854
H           -7.27376146031691        0.71787117122106       -1.84759014130399
H           -6.38126348080375        2.48183397368250       -3.35193064148466
H           -3.97159691125122        3.03784805339337       -3.27777863215460
H           -2.48489368893718        1.87610619387926       -1.71253355212601
