57
 energy: -96.260120992371 gnorm: 0.000031271320 xtb: 6.7.1 (edcfbbe)
F           -2.54917612467657        2.33813162558645        1.30465663629187
C           -1.54689067893106        1.55068471106684        0.84972111635501
C           -0.23773446308729        1.95613909830054        1.04275190687144
C            0.80945700877856        1.15001608704300        0.60004603516760
N            2.08469523463164        1.46479680377937        0.79563111400443
C            3.08151379055478        0.68671692155528        0.37092982114411
C            4.43990706723147        1.06985660479374        0.75384764357059
C            5.37754224601002        0.12540524594593        1.17121103067805
C            6.64333701380538        0.52453859392029        1.55286837746486
C            6.99142962841468        1.86603879277670        1.53141110560514
C            6.05764745466076        2.81193109694694        1.14094950744023
C            4.78889891723941        2.42039323704335        0.76019666018127
C            2.78057516757942       -0.46616561792169       -0.37727976457623
C            3.80164219728515       -1.29221155815919       -1.02391342248522
C            4.88735464050921       -0.72177768449320       -1.68736877945302
C            5.81962858723565       -1.52628228386307       -2.31277565995101
C            5.68145604982936       -2.90530315193208       -2.29156028463088
C            4.59290239246468       -3.47745950643111       -1.65394936146336
C            3.65481775325696       -2.67879519358249       -1.02881572224949
N            1.51068866617153       -0.82786309096140       -0.54087899716785
C            0.49870917871980       -0.09059107536072       -0.07854841286726
C           -0.82977421266430       -0.45425907952920       -0.25491705652399
C           -1.86616916027892        0.36012325988720        0.21071489464054
N           -3.21827756123873       -0.02203240663315        0.03708498110798
C           -3.75040090643173       -1.07019581935857        0.77595902823845
C           -2.98302590976074       -1.81566352856537        1.66585402396691
C           -3.54798574826913       -2.85710855400362        2.38151266485874
C           -4.88674335081306       -3.16885579459055        2.22755822255897
C           -5.66968982240487       -2.42575111993191        1.35871214980583
C           -5.11317598393171       -1.38220163229886        0.63991776793342
O           -5.94468637697709       -0.67788989715344       -0.18713344379831
C           -5.40577625806289        0.35944917532600       -0.89925853023302
C           -6.25469216322531        1.06505398686417       -1.73360101600039
C           -5.76645696370407        2.11163751172626       -2.49921327131452
C           -4.42397761288745        2.43941799058546       -2.43723062052161
C           -3.56879474848986        1.73866903017860       -1.60511438572727
C           -4.04659971835734        0.70068567464714       -0.81157273057228
H           -0.02462103491564        2.87908390248613        1.55475457084085
H            5.10745198722811       -0.91947875161111        1.20903023304329
H            7.36171317705358       -0.21486362060733        1.87534510304671
H            7.98373751271246        2.17287121797360        1.82699640529102
H            6.31968617190084        3.85995569604541        1.13456417200194
H            4.05464485508181        3.15137071808655        0.45690087817256
H            4.99156821250673        0.35252756486255       -1.72163230415890
H            6.65695004289113       -1.07505703553914       -2.82457041219781
H            6.41548494636175       -3.53053486626041       -2.77786571533818
H            4.47423019186138       -4.55120298400906       -1.64505578761559
H            2.80226518858696       -3.11643791590680       -0.53165359828174
H           -1.05878010209894       -1.37057221741493       -0.77428748849901
H           -1.94081480391843       -1.57270327143579        1.79830175018039
H           -2.93320049981201       -3.42244219431325        3.06449262421274
H           -5.32747319158448       -3.98068012319666        2.78402507641667
H           -6.71892016234041       -2.63547633701033        1.22638748520638
H           -7.29326116182454        0.77767801003503       -1.76877525144783
H           -6.43460626537050        2.66024468607757       -3.14388446925318
H           -4.03270608324389        3.24472971216128       -3.03914927384325
H           -2.52152595269518        1.99458019097721       -1.56975743256039
