57
 energy: -96.308752196994 gnorm: 0.000058273220 xtb: 6.7.1 (edcfbbe)
F           -2.82172373180166       -2.05557220450895        1.94687705096589
C           -1.82842112302610       -1.41705270158992        1.29795362439563
C           -0.53378661078997       -1.72633951616226        1.59281159114863
C            0.49788574977527       -1.03234633848793        0.93095512628496
N            1.78170038332624       -1.36411145786551        1.14563987312562
C            2.72164990041570       -0.69119759143477        0.52309124752005
C            4.09674445057031       -1.17350308083080        0.69194204969816
C            4.98122654359990       -1.22966653854730       -0.38328463750261
C            6.26717118595215       -1.70008176691986       -0.19785071732945
C            6.68531889312303       -2.11613712097237        1.05597152503687
C            5.80429004242631       -2.08075583892101        2.12443802830733
C            4.51407888502640       -1.62039195094507        1.94347015701250
C            2.39081488065195        0.43883726499915       -0.29669513322628
C            3.40716506756917        1.34540412124770       -0.84359020605066
C            4.49615381295770        1.75661050171246       -0.07797721439367
C            5.43123787785341        2.62176989814550       -0.61331701060794
C            5.29344935304605        3.08303442064213       -1.91263932970798
C            4.20251733062732        2.69256144084407       -2.67181445712216
C            3.25878901868704        1.83532235314693       -2.13881942746860
N            1.14038206940707        0.72575305372463       -0.56956847564929
C            0.16662457680855       -0.00890322656839        0.00026267224113
C           -1.18064797134461        0.26296091030476       -0.29327420793787
C           -2.18425832491789       -0.42611559030823        0.34692642874860
N           -3.53940871886325       -0.15621404316579        0.10034767725143
C           -4.37316947974356       -1.16772953632102       -0.38902203067583
C           -3.87150524155011       -2.38540967090744       -0.82880508358649
C           -4.72150851094752       -3.36896611051576       -1.31012338614757
C           -6.08142515762904       -3.14307930085121       -1.37636098767518
C           -6.59269362830766       -1.91695235499936       -0.97854554105717
C           -5.74916906237168       -0.93382067394972       -0.49537871291627
O           -6.31849263825336        0.26569026747742       -0.15144183125152
C           -5.48219113140287        1.26534120467762        0.27485906658741
C           -6.06980189183761        2.47847039967633        0.58490425896690
C           -5.29968831035390        3.53117460128309        1.05476518144653
C           -3.94127914070427        3.35636151519443        1.22362514401020
C           -3.34560577148342        2.14407983749497        0.91016296190560
C           -4.09922406840131        1.08754427456691        0.41611026020775
H           -0.29104197587517       -2.48392155185111        2.31986881367491
H            4.65553796608046       -0.92194124610874       -1.36611784902709
H            6.94655499071566       -1.74334199295280       -1.03626622052844
H            7.69410760895595       -2.47468326989793        1.19757566227063
H            6.12409533045591       -2.41511645270247        3.10039560778496
H            3.81558922711413       -1.59130116694545        2.76574608307527
H            4.59992532695089        1.41246982028772        0.94062178534497
H            6.27152295356531        2.93853216546320       -0.01338065708540
H            6.03168377320034        3.75198072077688       -2.32951371884980
H            4.08667436600714        3.05952899063643       -3.68102408188543
H            2.40133017088807        1.52646838221864       -2.71701291182101
H           -1.41016013687631        1.02541513391062       -1.02099480204961
H           -2.80815299997401       -2.56901866699452       -0.79919587604694
H           -4.30723757367571       -4.31054548487073       -1.63583020285578
H           -6.74757399678331       -3.90666343153383       -1.74577865757497
H           -7.64769586562324       -1.70186075058333       -1.03604042296133
H           -7.13636051049840        2.57403840021606        0.45882990382533
H           -5.76724656461111        4.47324416303743        1.29358855328458
H           -3.32947910437440        4.15972196366999        1.60396480893988
H           -2.28527249374499        2.02042482385253        1.06395664791883
