  57
        -96.25397540
 F         -2.5399780888        2.4487330191        1.1205544344
 C         -1.5391084283        1.6256055847        0.7269631196
 C         -0.2280409538        2.0366768709        0.8952574659
 C          0.8164472251        1.1926636803        0.5156037443
 N          2.0907035472        1.5067775886        0.7043244509
 C          3.0830413274        0.6978315446        0.3336878496
 C          4.4406148780        1.0785813007        0.7160937230
 C          5.3653863021        0.1379979066        1.1713075478
 C          6.6326834783        0.5352045912        1.5488090083
 C          6.9963095958        1.8714925938        1.4862432313
 C          6.0753036860        2.8145110969        1.0595517766
 C          4.8050099375        2.4252518298        0.6825569979
 C          2.7754948113       -0.4894135888       -0.3622928444
 C          3.7937297296       -1.3432667886       -0.9745785129
 C          4.8848874172       -0.8018703534       -1.6540373704
 C          5.8151569790       -1.6322526397       -2.2472476971
 C          5.6702928773       -3.0091314756       -2.1776400951
 C          4.5763414197       -3.5531521605       -1.5245546284
 C          3.6399374499       -2.7287008277       -0.9315591151
 N          1.5061389890       -0.8533355128       -0.5056806444
 C          0.4990156962       -0.0881654976       -0.0819271032
 C         -0.8314046206       -0.4589386625       -0.2304850498
 C         -1.8638137534        0.3936194025        0.1767503400
 N         -3.2188164581        0.0069503062        0.0318003263
 C         -3.7554006293       -0.9782157980        0.8473007671
 C         -2.9916480308       -1.6548593656        1.7945065525
 C         -3.5618789953       -2.6347891252        2.5875910521
 C         -4.9022287255       -2.9529350918        2.4558481977
 C         -5.6812740311       -2.2783367966        1.5299947870
 C         -5.1194608692       -1.2961735757        0.7324726735
 O         -5.9450091064       -0.6570225268       -0.1501380261
 C         -5.4010897440        0.3180887711       -0.9403164978
 C         -6.2445669871        0.9572862747       -1.8323043248
 C         -5.7496660612        1.9386214013       -2.6754813548
 C         -4.4061317921        2.2682789382       -2.6324929951
 C         -3.5564870788        1.6342894776       -1.7440260046
 C         -4.0405572483        0.6619081242       -0.8737405091
 H         -0.0102101457        2.9912115530        1.3429834876
 H          5.0833053327       -0.9019999454        1.2422496127
 H          7.3402481103       -0.2012466933        1.9006145050
 H          7.9902767194        2.1765933891        1.7780251813
 H          6.3491402562        3.8589104813        1.0216855915
 H          4.0802344356        3.1536170166        0.3515954220
 H          4.9948005952        0.2699515170       -1.7254006708
 H          6.6569762451       -1.2035238250       -2.7707383956
 H          6.4035895781       -3.6545964763       -2.6379970665
 H          4.4522206935       -4.6253084317       -1.4789267458
 H          2.7828659577       -3.1434752592       -0.4228259819
 H         -1.0652197177       -1.4068106568       -0.6869236245
 H         -1.9489044785       -1.4054504065        1.9087360029
 H         -2.9508745305       -3.1478687756        3.3137589366
 H         -5.3465009190       -3.7169570254        3.0737370159
 H         -6.7308032218       -2.4948329380        1.4119890135
 H         -7.2835847740        0.6700687034       -1.8500107395
 H         -6.4128485862        2.4355773483       -3.3654933474
 H         -4.0107327305        3.0229503145       -3.2942541511
 H         -2.5086701547        1.8894391292       -1.7233047084
