58
 energy: -92.200668265690 gnorm: 0.000089793200 xtb: 6.7.1 (edcfbbe)
N            5.84310796776836       -3.95719142016927       -0.07411722600869
C            6.01090289993215       -2.82207902911886       -0.04671412331741
C            6.29434241530533       -1.43994610249756       -0.01198213744913
C            7.68449805507289       -1.19841564167036       -0.00012360695323
N            8.82481948986461       -1.06750531743577        0.00758183761297
C            5.34069674773638       -0.46125431805158        0.00842562147696
C            5.57093468335203        0.98230048013748        0.04783683619570
C            6.74183377499565        1.72014954019398        0.07089552863449
C            6.65323703019434        3.10647146139079        0.10942481504531
C            5.42443397767227        3.74487042812159        0.12457200885066
C            4.24212883710692        3.01380874854067        0.10070306849759
C            4.31969493580045        1.63761211502160        0.06237286075912
C            3.27510971162282        0.62185394070814        0.02810143269986
C            1.90581925772969        0.74331527986127        0.02425422699671
C            1.11479975234188       -0.41334556252526       -0.00493061833253
C           -0.34448335111667       -0.30883926453226       -0.00491372689718
C           -0.99201334480554        0.70887152946811       -0.70804695167469
C           -2.36539057289283        0.80657643543908       -0.71764866962929
C           -3.14785007438333       -0.10622045012391       -0.00542340818153
N           -4.53537939004526       -0.00633500591081       -0.00596227355330
C           -5.32788813576864       -1.16159356735461        0.05527961511138
C           -6.50121529416802       -1.17078061723467        0.80800072949667
C           -7.28487125178576       -2.30729283974420        0.85896987284783
C           -6.91006653324406       -3.44938652949299        0.17041328134381
C           -5.74384569887367       -3.44538070098872       -0.57717237922281
C           -4.95770752542290       -2.31127811872714       -0.64112722449836
C           -5.15502203375592        1.24960171617028       -0.06748516989122
C           -6.31652727616956        1.42540170705223       -0.81827533104904
C           -6.93036242696349        2.66186571590237       -0.86935031065498
C           -6.39564623607152        3.73966028767597       -0.18271700652023
C           -5.24070690589105        3.57011314931330        0.56315170578054
C           -4.62393367842071        2.33571606054169        0.62707519455506
C           -2.50471318842031       -1.12191489897916        0.70716617902911
C           -1.13166626759807       -1.22270616889512        0.69840611556830
C            1.73850566657773       -1.66249794751457       -0.03339340322418
C            3.11695287116029       -1.79284047752410       -0.03456095641235
C            3.89787871055637       -0.64745298241104       -0.00261281473052
H            7.70860572452236        1.24309310770848        0.05951190466643
H            7.55985897353056        3.69210080439415        0.12793879688558
H            5.38347992871226        4.82364869212812        0.15516405984195
H            3.28595372687407        3.51500852361864        0.11267938874242
H            1.44025300040498        1.71631566241809        0.06883486478264
H           -0.41077917016868        1.40972696986676       -1.28896066751358
H           -2.84774763805310        1.58678253509779       -1.28785262739808
H           -6.79023592139030       -0.28344064494415        1.35202272973033
H           -8.19048325256136       -2.30298407598225        1.44732185877241
H           -7.52322907203338       -4.33643727837073        0.21527893023834
H           -5.44777014330076       -4.32920737357644       -1.12264756291350
H           -4.05491576442863       -2.30589007056791       -1.23433408857292
H           -6.73003544721144        0.58777230598820       -1.36064603144467
H           -7.82847767144478        2.78600720795190       -1.45610046448296
H           -6.87645723625920        4.70491067108682       -0.22743209810114
H           -4.82117627940832        4.40324808197698        1.10759305043561
H           -3.73043429712045        2.20210245728250        1.21939200422935
H           -3.09437831797450       -1.82512812428379        1.27650587579085
H           -0.65664248411213       -2.00023712769898        1.27789447735261
H            1.12960000001468       -2.55263595117908       -0.07942663463870
H            3.56171765442967       -2.77469126260510       -0.06431936911547
