58
 energy: -92.200400890628 gnorm: 0.000169158585 xtb: 6.7.1 (edcfbbe)
N            6.33040248730706        0.28998758335455       -4.37053282284812
C            6.53917562195729        0.20723337987269       -3.24495629188844
C            6.87311841117278        0.10393073180828       -1.87756847220934
C            8.27118846814389        0.06817968258798       -1.68938279669129
N            9.41544598319547        0.04402086697630       -1.60277961062402
C            5.95651389829575        0.04416605915714       -0.86582891029121
C            6.23991291643974       -0.06828830911157        0.56432162603328
C            7.43726877341870       -0.13398699908347        1.25569011467729
C            7.40005392419111       -0.24145978308513        2.64067004617859
C            6.19575647592481       -0.28284951371946        3.32307504803476
C            4.98725444148223       -0.21659723308658        2.63897352257017
C            5.01381331334573       -0.10933973520031        1.26451044803759
C            3.93241330977667       -0.01878159793869        0.29158822754113
C            2.56848677080853       -0.01574875347546        0.46405811894900
C            1.73554865008338        0.07330012333142       -0.65944426083559
C            0.28020184549394        0.06561389665896       -0.50033420363868
C           -0.32938404579277        0.72317922137315        0.56932658315789
C           -1.69796194776595        0.71639815079845        0.72383903411359
C           -2.51212500231182        0.03806524892442       -0.18675592872983
N           -3.89481638116270        0.01975603429758       -0.02951228000322
C           -4.63468602196549       -1.11088904262656       -0.40410036582009
C           -4.13571009019013       -2.39204545092576       -0.17243583863925
C           -4.87188464452543       -3.50135323849199       -0.54071684780522
C           -6.11468198303186       -3.35321159538070       -1.13445214764714
C           -6.61673366230557       -2.08227889632279       -1.36159211503313
C           -5.88455635849548       -0.96659390876137       -1.00445877087749
C           -4.56149903050480        1.12850092168994        0.51068764511506
C           -4.16373138133270        2.42339112992853        0.18040835245100
C           -4.82667438596255        3.51118422793117        0.71466180795064
C           -5.89679254124266        3.32761355381820        1.57504050095064
C           -6.29920660878885        2.04285553424380        1.90119609430607
C           -5.63751022098682        0.94856792159571        1.37867900897928
C           -1.90694479214476       -0.62364266680585       -1.25840676470020
C           -0.53851424081640       -0.60401400271598       -1.41126421894352
C            2.31234978669994        0.16429769545088       -1.92771650931952
C            3.68515617850736        0.16823140816570       -2.10915574200985
C            4.50768344274939        0.07356917935997       -0.99692982917555
H            8.38569633196425       -0.10292493212914        0.74394438228942
H            8.32771322011863       -0.29359212401083        3.19020320977828
H            6.19474903041370       -0.36796019468660        4.39969479925272
H            4.05033559405638       -0.24949063868383        3.17442883044248
H            2.13886957707044       -0.10762116740636        1.45019711762629
H            0.27759232885780        1.26552594940527        1.27928646071217
H           -2.14985121106912        1.23201601665528        1.55838321622671
H           -3.17187980365446       -2.50953023957338        0.30113788489258
H           -4.47570009241861       -4.48859625908475       -0.35403360260156
H           -6.68834595162245       -4.22254536473000       -1.41735560253055
H           -7.58289806826444       -1.95758617164178       -1.82772739362067
H           -6.27364185489249        0.02398178243377       -1.18935837488694
H           -3.33713945171683        2.56827571646653       -0.49984807525099
H           -4.51077789700272        4.50933726353523        0.44945600654132
H           -6.41430870247468        4.18015226177590        1.98764269291998
H           -7.13012927000053        1.89055711079296        2.57405046796778
H           -5.94735376857822       -0.05270649994686        1.64003269817822
H           -2.52263795364279       -1.14880529288933       -1.97358167293820
H           -0.09302193292891       -1.13397212397356       -2.23993293427254
H            1.67092011154718        0.25692691315048       -2.79100943060136
H            4.09347940459345        0.24760016994270       -3.10401513145361
