58
 energy: -92.144192437872 gnorm: 0.000076866268 xtb: 6.7.1 (edcfbbe)
N            5.78053253690191       -3.91551691408039        0.71098223488001
C            5.99250527130953       -2.80616972109867        0.46802899159652
C            6.30056738760797       -1.48200359902794        0.17536318590539
C            7.65718793263438       -1.25997299778896       -0.03548720644232
N            8.79214438259491       -1.12932360843051       -0.20558387053425
C            5.31228484736928       -0.44740956302319        0.10044426920061
C            5.56536264966997        0.97133939382694        0.02303560882968
C            6.74763038097940        1.70097652577933        0.01028191650343
C            6.67882709738488        3.08445752489336       -0.06427348436791
C            5.45831205490597        3.74535724681903       -0.12393178586912
C            4.26793410259641        3.03366624821000       -0.10877957275815
C            4.31776169090732        1.65215764109717       -0.03379064598922
C            3.27466599037817        0.66110365141473       -0.00176287907445
C            1.90808679188522        0.77326063299172       -0.02769732400623
C            1.10907333009462       -0.37984726347477        0.03921469435579
C           -0.33346036724380       -0.28584211104977        0.02541004135196
C           -0.99170095137728        0.76564306577312       -0.63581214629934
C           -2.36055947295999        0.85818335759037       -0.65343056296397
C           -3.14986757423406       -0.09864676364392       -0.00010928514986
N           -4.53254547447948       -0.00758752245827       -0.01411742762284
C           -5.32062899114607       -1.16647100408138        0.00954720672350
C           -6.50155298033796       -1.19696108390739        0.75125238347958
C           -7.27989209521670       -2.33781382563873        0.76633543481701
C           -6.89391576167160       -3.45939563315557        0.04958381315697
C           -5.72174680595820       -3.43250962832100       -0.68919118739742
C           -4.93796293667482       -2.29556564203226       -0.71492076589433
C           -5.16133957094507        1.24431252004670       -0.05205354464124
C           -6.31291504527804        1.42857075842028       -0.81731622880977
C           -6.93472946331591        2.66148863664494       -0.84613094552887
C           -6.41984076012996        3.72358903882635       -0.11984708061703
C           -5.27644418481872        3.54410364360327        0.64233201732775
C           -4.64888935113347        2.31438380406156        0.68183674434931
C           -2.50579477772496       -1.15002510017539        0.66669056940961
C           -1.13656161538434       -1.24022518133718        0.67370010866711
C            1.74622660054329       -1.64824175394478        0.11176794138807
C            3.10602505078697       -1.78413928181402        0.11740018963543
C            3.91455720415571       -0.63168194869928        0.08155608385529
H            7.70690081450311        1.21020214018293        0.05762763338981
H            7.59373393705499        3.65830650100243       -0.07348395861718
H            5.43764036554358        4.82377786748537       -0.18071381536698
H            3.31924240610083        3.54896660058787       -0.15499732365062
H            1.44834738410443        1.75002783952516       -0.05659790897693
H           -0.41290351755048        1.49325124050074       -1.18336061622454
H           -2.84176608057336        1.65790814183203       -1.19709276362215
H           -6.79551221394277       -0.32659383397207        1.31916190848111
H           -8.18945543933389       -2.35359502915049        1.34755065985882
H           -7.50392787677710       -4.34922100751257        0.06569573024304
H           -5.41938771033595       -4.29978546067498       -1.25638661421444
H           -4.03294933685528       -2.26835584185487       -1.30366675562523
H           -6.70688422113562        0.60357807413776       -1.39229405899704
H           -7.82254328853199        2.79566378345046       -1.44541602550406
H           -6.90780138152772        4.68555786230843       -0.14654358772601
H           -4.87493665029447        4.36482349627205        1.21732702931058
H           -3.76747412296174        2.16922470540528        1.28887456019778
H           -3.09815487782805       -1.87858358996876        1.20043095881332
H           -0.66970165578721       -2.03727139039118        1.23104461721601
H            1.13215536555387       -2.53596041116844        0.11708295176808
H            3.55320898004679       -2.76497197391927        0.14983485562011
