  77
       -111.58406976
 C         -8.4304974874       -1.3079235523        0.6262806837
 C         -7.3947128509       -2.4350941997        0.5903731255
 C         -7.4678049243       -3.1934046856        1.9238648009
 C         -7.7574597603       -3.3791018253       -0.5653542250
 C         -5.9783552797       -1.9232268695        0.3868699897
 C         -4.9260421540       -2.8481998712        0.3245285627
 C         -3.6112774492       -2.4756026436        0.1349527236
 C         -3.3321324930       -1.1226843669       -0.0091115274
 C         -4.3710080139       -0.1667825622        0.0836122964
 C         -5.6823605094       -0.5692862435        0.2735454804
 C         -3.7448510207        1.1234192840       -0.0430599555
 C         -4.2336607615        2.4193652735       -0.0377524311
 C         -3.3593943690        3.4866552127       -0.2087550051
 C         -3.8250772817        4.9333804923       -0.2021581796
 C         -3.0918096032        5.6910660947        0.9144292077
 C         -3.5041175399        5.5706263050       -1.5619574036
 C         -5.3304191685        5.0673417833        0.0432547964
 C         -1.9979822901        3.2143528735       -0.4060674227
 C         -1.4841593090        1.9339975635       -0.4137857827
 C         -2.3620161376        0.8779273548       -0.2093618941
 N         -2.1276956420       -0.4796676405       -0.1882794655
 C         -0.8823857221       -1.0945494175       -0.3163361558
 C         -0.7024840869       -2.1853069998       -1.1836739822
 C          0.5233345872       -2.7769803220       -1.3046031798
 C          1.6477595800       -2.2855625925       -0.5953901397
 C          2.9091809261       -2.9649300080       -0.7717837831
 O          2.9369029442       -4.1258873778       -1.2628305494
 C          4.1545868776       -2.3246646605       -0.3550724545
 C          5.2440724517       -3.1473932251        0.0005902129
 C          6.4487529704       -2.6112149872        0.3857805456
 C          6.5902991260       -1.2281905498        0.3985371428
 S          8.0295927993       -0.3407926644        0.8492259317
 C          7.2354567905        1.1795595919        0.4987638377
 C          7.8004207616        2.4369432139        0.6324974674
 C          7.0317026884        3.5414641873        0.3149549606
 C          5.7223852000        3.3904644050       -0.1279160771
 C          5.1610085146        2.1345463395       -0.2603877877
 C          5.9140691639        1.0087172827        0.0515283956
 C          5.5372637798       -0.3833942786       -0.0033810539
 C          4.3297253192       -0.9362632059       -0.3921328733
 C          1.4342300443       -1.2391734548        0.3293891144
 C          0.2050928296       -0.6463357504        0.4495264648
 H         -8.4325344773       -0.7476657628       -0.3058930367
 H         -8.2417197078       -0.6276202298        1.4535210273
 H         -9.4223762483       -1.7333437109        0.7633982856
 H         -6.8033923445       -4.0526979916        1.9304665379
 H         -8.4821340450       -3.5465200655        2.0964184301
 H         -7.1858698898       -2.5379360888        2.7453204307
 H         -7.0930838216       -4.2376546115       -0.6023882687
 H         -8.7756825513       -3.7423598496       -0.4442034282
 H         -7.6890879609       -2.8535325302       -1.5156841012
 H         -5.1398802400       -3.8997343408        0.4351360032
 H         -2.8256666173       -3.2148746934        0.1163464196
 H         -6.4519936938        0.1817452546        0.3343531303
 H         -5.2910825864        2.5743935709        0.0954600828
 H         -3.2971344942        5.2303333075        1.8785003367
 H         -3.4288896141        6.7247813922        0.9471466940
 H         -2.0168613612        5.6898973204        0.7583940345
 H         -3.8519406174        6.6010935337       -1.5820892022
 H         -4.0005884464        5.0226958170       -2.3602625957
 H         -2.4360394347        5.5685175228       -1.7610702318
 H         -5.6027830954        6.1206226647        0.0513845693
 H         -5.6099683505        4.6418015915        1.0042906121
 H         -5.9013437582        4.5809223471       -0.7442205235
 H         -1.3130929791        4.0328402470       -0.5637448555
 H         -0.4328772899        1.7620261999       -0.5858932243
 H         -1.5349399683       -2.5221204579       -1.7841013758
 H          0.6801479894       -3.6094833143       -1.9732141333
 H          5.0999515060       -4.2163199589       -0.0231981365
 H          7.2720505940       -3.2455457867        0.6767175063
 H          8.8173190533        2.5441463630        0.9766904875
 H          7.4536558715        4.5303755718        0.4128747402
 H          5.1383963605        4.2659471441       -0.3705632643
 H          4.1440362001        2.0213968576       -0.6048281788
 H          3.5423571347       -0.2955231759       -0.7582926694
 H          2.2361631779       -0.9260060789        0.9805681478
 H          0.0477616309        0.1390323950        1.1751028654
