  51
        -83.65201100
 C          1.2586543983        4.0400496547       -0.0612623214
 C          0.9036742704        3.4636856888        1.1473264508
 C          0.2267153332        2.2581220806        1.1702557768
 C         -0.0975273950        1.6311343839       -0.0275611486
 N         -0.7670680188        0.3874524581       -0.0124654903
 C         -0.1538523944       -0.8459532607       -0.0211453586
 C          1.2545025229       -1.0761380715       -0.0258734866
 C          1.8433188607       -2.3191203490       -0.0593045937
 C          3.2394254431       -2.2731337009       -0.0477856787
 C          3.7417709071       -0.9947361474       -0.0028983046
 C          5.1024789911       -0.5725473472        0.0244425621
 C          5.5919977452        0.7077992994        0.0842134776
 C          6.9975914048        0.7611793014        0.0977256900
 C          7.5707120125       -0.4700312535        0.0486303884
 S          6.4030094874       -1.7301716924       -0.0165904844
 S          2.4561840976        0.1796532688        0.0224286974
 N         -1.0283230170       -1.8312729334       -0.0181756333
 C         -2.2482858958       -1.2438323523       -0.0070338812
 C         -3.5247309298       -1.8740812992        0.0018058006
 C         -3.6430777358       -3.2675633018       -0.0031910397
 C         -4.8817157864       -3.8587002397        0.0050150260
 C         -6.0213652749       -3.0571693598        0.0179318487
 C         -5.9164481953       -1.6857307047        0.0234059443
 C         -4.6687037351       -1.0435714102        0.0160668303
 C         -4.5276394877        0.4027851795        0.0207261647
 C         -5.6424607039        1.2525204132        0.0384793103
 C         -5.5162128643        2.6217198648        0.0398288290
 C         -4.2546790634        3.2084238601        0.0216562243
 C         -3.1359604760        2.4127130275        0.0056052156
 C         -3.2440001749        1.0146195282        0.0072970400
 C         -2.1186528902        0.1464416091       -0.0037552400
 C          0.2569946975        2.2077790235       -1.2419897932
 C          0.9344920298        3.4131318172       -1.2531044831
 H          1.7886781404        4.9803810414       -0.0743937771
 H          1.1554061182        3.9528220421        2.0761319955
 H         -0.0557682069        1.7970087181        2.1050488612
 H          1.2564215829       -3.2177437069       -0.0906564076
 H          3.8730283841       -3.1420563047       -0.0700907587
 H          4.9513490048        1.5714796028        0.1169359171
 H          7.5590976150        1.6770128052        0.1425818799
 H          8.6121126714       -0.7226589594        0.0459761951
 H         -2.7349598767       -3.8496349324       -0.0135273403
 H         -4.9776111450       -4.9343278066        0.0014389889
 H         -6.9990300998       -3.5171732755        0.0237796661
 H         -6.8265069494       -1.1074506923        0.0328442647
 H         -6.6357163185        0.8341927756        0.0527500827
 H         -6.3992547194        3.2434227413        0.0547569645
 H         -4.1553894181        4.2837093584        0.0197044791
 H         -2.1586124164        2.8685667050       -0.0095804826
 H         -0.0016965731        1.7071322278       -2.1632747733
 H          1.2092475781        3.8630349020       -2.1951382008
