51
 energy: -83.621772653343 gnorm: 0.000026903800 xtb: 6.7.1 (edcfbbe)
C            1.20606954263876        4.11713416432219       -0.01120481383611
C            0.86611773306724        3.51436766957287        1.18889352143834
C            0.20942240956386        2.29697264170246        1.19387984318124
C           -0.10831877537214        1.68398161467059       -0.01303176000430
N           -0.76810545878611        0.43235693097159       -0.01338916378108
C           -0.12446189522608       -0.80836762443410       -0.01205391355592
C            1.24117870927615       -1.02839036403191       -0.01205761162720
C            1.84352372379357       -2.32042481926706       -0.00996258013061
C            3.19968313727886       -2.29902642818388       -0.00374359664041
C            3.75875189024538       -0.99052968961926       -0.00044151185272
C            5.08850115019092       -0.62434700505142        0.00989357086423
C            5.64062440408479        0.66912081126047        0.01621599085442
C            7.02714344217580        0.67049180924261        0.02910342792946
C            7.57548793537979       -0.58980723980803        0.03238008684145
S            6.37914229134731       -1.82960350873564        0.01960855874217
S            2.47418433226883        0.22569757498801       -0.00845369221708
N           -1.01892680119965       -1.81371249934431       -0.00727015435747
C           -2.22311836386419       -1.23688150907658       -0.00381114839062
C           -3.49811216506968       -1.87482800488094        0.00593584566201
C           -3.60276946307136       -3.26941728293498        0.01415804743450
C           -4.83656044931029       -3.87558017821681        0.02709151556430
C           -5.98294202488153       -3.08536970367585        0.03239297627811
C           -5.89160850598756       -1.71061072764944        0.02365808814795
C           -4.65163600339100       -1.05543597642886        0.00965707958857
C           -4.52636539607164        0.39340089138870       -0.00096768041319
C           -5.64768488085257        1.23119254224880       -0.00422348894709
C           -5.53605413323884        2.60405664911294       -0.01558659889579
C           -4.27954737909760        3.20612590155980       -0.02440258876302
C           -3.15288132300588        2.42380992199077       -0.02148429204671
C           -3.24329036371077        1.01941477508536       -0.00966952854023
C           -2.11055520134191        0.17405235334964       -0.00803247826835
C            0.23317322998941        2.28585345889969       -1.21902447847242
C            0.88958606980204        3.50347877606028       -1.21212817925451
H            1.71993652110026        5.06642143553160       -0.01047371134408
H            1.11421760805378        3.99001645205352        2.12563438097647
H           -0.06005281994608        1.81543870731840        2.12258808468620
H            1.22542412460911       -3.19911739236365       -0.01259362884645
H            3.83347651053805       -3.16812462152943       -0.00074746398902
H            5.01882173872986        1.54610018370627        0.01184851568923
H            7.62627944452423        1.56423018018547        0.03595650500955
H            8.61135089064808       -0.86332390026604        0.04140958092721
H           -2.68855165402351       -3.84309647145753        0.01050145042505
H           -4.91860386713516       -4.95215973956760        0.03367669019723
H           -6.95626526326930       -3.55410446369739        0.04345041237379
H           -6.80742712209673       -1.14194065127600        0.02868495114395
H           -6.63692773760128        0.80346189290927        0.00142752322187
H           -6.42645569851765        3.21500943513018       -0.01789931112241
H           -4.19204280343077        4.28221139044529       -0.03380578493564
H           -2.17913991637283        2.88656567867552       -0.02893383094483
H           -0.01786121380378        1.79588554742231       -2.14847289787423
H            1.15591201258467        3.97077772994486       -2.14806304878106
