51
 energy: -83.621768347703 gnorm: 0.000041705280 xtb: 6.7.1 (edcfbbe)
C            1.17020869822909        4.12606466434135        0.00032236103017
C            0.86800208177709        3.50421010024764        1.20070919674034
C            0.22110589497441        2.28151041331244        1.20687292539214
C           -0.12491749032929        1.68258157036771        0.00070510929686
N           -0.77337080936199        0.42505735760887        0.00025191563249
C           -0.11785368585922       -0.80940571666961       -0.01171657258877
C            1.24981168968992       -1.01629880039743       -0.02202304540245
C            1.86442941801232       -2.30251532291114       -0.03269045096289
C            3.22031552825636       -2.26817910391896       -0.04189675509266
C            3.76686000291332       -0.95442066481139       -0.03881057234056
C            5.09296157369039       -0.57518690129628       -0.04411866380225
C            5.63204374242634        0.72378527437986       -0.04069476602204
C            7.01850827523342        0.73913081491547       -0.04721751579863
C            7.57947658474964       -0.51557649044825       -0.05564832516779
S            6.39561443628696       -1.76738965064622       -0.05598499748336
S            2.47082618073150        0.24945001229399       -0.02423781836276
N           -1.00262547893349       -1.82328723133300       -0.01323732972990
C           -2.21226157541151       -1.25808594454032       -0.00267781643238
C           -3.48101959333750       -1.90837887242095       -0.00107606402338
C           -3.57211066249359       -3.30388995641892       -0.01259023244853
C           -4.79997563097783       -3.92209937586988       -0.01227546154847
C           -5.95401448628186       -3.14316989977650       -0.00008365209794
C           -5.87601074972789       -1.76760163486062        0.01162377919076
C           -4.64242856024724       -1.10031717766412        0.01141123902476
C           -4.53110112050010        0.34965087336556        0.02331157746057
C           -5.66043050515106        1.17648223886096        0.03795857783424
C           -5.56203928742031        2.55035518720080        0.04959129575756
C           -4.31140668118275        3.16461033027611        0.04751048612720
C           -3.17724484896205        2.39330533084320        0.03344147225348
C           -3.25412556114312        0.98810576411277        0.02077808995050
C           -2.11327304103529        0.15384935664571        0.00631017878530
C            0.17843783958585        2.30382306724495       -1.20568112462568
C            0.82530740906272        3.52646887013307       -1.19994919896944
H            1.67699068286231        5.07914502769055        0.00015628243674
H            1.13839734609024        3.96893816088963        2.13674482892274
H           -0.01871997830745        1.78514418019122        2.13588056677585
H            1.25466942056675       -3.18701602214708       -0.03280467242194
H            3.86238131329763       -3.13114900324131       -0.05060350184042
H            5.00138265598655        1.59440463363361       -0.03375366240705
H            7.60872116243473        1.63880789201336       -0.04580230553794
H            8.61808486348434       -0.77854826782424       -0.06155118941598
H           -2.65230094501106       -3.86851306867327       -0.02182277787121
H           -4.87147184060871       -4.99941852411222       -0.02135465746839
H           -6.92280891661405       -3.62135910324861        0.00028322831395
H           -6.79732901998657       -1.20794045677960        0.02074418948557
H           -6.64546579778745        0.73912262715669        0.04066264965754
H           -6.45827558335538        3.15262442048999        0.06040889893179
H           -4.23441900665028        4.24150465230934        0.05680096718280
H           -2.20796594922707        2.86543977796664        0.03221122652685
H           -0.09453744704041        1.82460116803667       -2.13456155565757
H            1.06227209414211        4.00849619548262       -2.13630321568442
