60
 energy: -108.081243798100 gnorm: 0.000094733564 xtb: 6.7.1 (edcfbbe)
O            6.63947781649718       -0.18241720585446       -1.44919364109971
C            5.82419282215701        0.71368586034305       -1.37917400457682
O            6.19704300463858        1.98778368278853       -1.19208404796266
C            4.36612261028006        0.53185399374194       -1.48602053541487
C            3.86015395085979       -0.75304130550964       -1.68169721975720
C            2.49916365069819       -0.95417304986049       -1.78108009364262
C            1.61181902778261        0.11600740816959       -1.69146736614615
C            0.13355408363455       -0.11702354126297       -1.80549389177790
C           -0.59666179341492       -0.16479941580270       -0.43135884647153
C            0.10636785180678       -1.26004993215549        0.35416205335185
C            1.31465690546572       -1.00988755492429        1.00328590963771
C            1.99451016363461       -2.01940222025607        1.65461107299797
C            1.48654730675152       -3.31713783394774        1.65373010232325
C            2.18126765629152       -4.42365968785253        2.33682965522934
O            1.80448045569076       -5.57676097164646        2.34041510510781
O            3.29702211505331       -4.04618980636627        2.97498216474445
C            0.29558712990786       -3.58105063010097        0.97943697737846
C           -0.38036471051388       -2.56454470181366        0.33514623027201
C           -0.61628265637058        1.18950115501035        0.26973391163086
C           -0.44545199104756        1.30564145320674        1.64742874301076
C           -0.53716000127015        2.53238416478318        2.27401049229647
C           -0.82375268056055        3.68114553991852        1.53994647816595
C           -0.91247538214987        4.97585322441698        2.23912986527409
O           -0.74850686904863        5.12894289999224        3.43123910506801
O           -1.19700892877144        6.00521306805027        1.43006027059115
C           -1.04229991053764        3.56907351394357        0.16839204274505
C           -0.94784191602942        2.33813490246098       -0.44821578769387
C           -2.08341341089774       -0.47914921722065       -0.58899097427293
C           -2.73674630948817       -0.52273648530476       -1.81544270433046
C           -4.09575856669070       -0.77003030209747       -1.88732412218875
C           -4.83449351406014       -0.97734242157370       -0.72621401989793
C           -6.28396547857346       -1.24496817290143       -0.76383980116363
O           -6.97504491761196       -1.43980086106702        0.21378595812380
O           -6.79648283200923       -1.25746133851594       -2.00160389494453
C           -4.18645067468803       -0.93137441866475        0.50877656186344
C           -2.83311140722629       -0.68269416955377        0.57119174698952
C            2.12483270577082        1.39823057360074       -1.51056637187072
C            3.48479679003296        1.60940160820057       -1.40370416837790
H            7.16403541622116        2.05170324860590       -1.12911878981451
H            4.55360782380028       -1.57788079824296       -1.75072608238609
H            2.11917216360079       -1.95374655851125       -1.93166970611181
H           -0.29554064682426        0.67025066750312       -2.42204648902800
H           -0.03314138199839       -1.07862955852215       -2.29290907875615
H            1.73172648104930       -0.01514280440867        1.00344308508603
H            2.92467395571398       -1.81114943520186        2.15925384222227
H            3.71726989604457       -4.80917159307664        3.40442970743288
H           -0.08278736295590       -4.59235980344986        0.97109065844258
H           -1.29762392344899       -2.79202757885321       -0.18599416513715
H           -0.24035551495375        0.43341650935748        2.24775627101423
H           -0.39450475287351        2.62017720910870        3.34079728462727
H           -1.24570182308932        6.83221940301363        1.93677442266583
H           -1.29216664256041        4.44858485547311       -0.40399833022529
H           -1.15349367820209        2.28077471854545       -1.50525533031616
H           -2.19981732491816       -0.37285608954602       -2.73701047855109
H           -4.59125668103183       -0.80432037001231       -2.84486812756241
H           -7.75026866101232       -1.43802767262551       -1.97273374516056
H           -4.76518220126547       -1.09314789917614        1.40574015772573
H           -2.34541282824230       -0.65102434496311        1.53299991644751
H            1.45343550390689        2.24049898357844       -1.44918924720417
H            3.87501008703833        2.60470110704182       -1.25959073060541
