60
 energy: -107.982557652479 gnorm: 0.000051085445 xtb: 6.7.1 (edcfbbe)
O            6.26180097456714       -1.77279559901533        1.17851857643461
C            5.76321670296123       -0.71926600025024        1.51465274222422
O            6.51268281952910        0.35530934928712        1.79528161033089
C            4.31422648806612       -0.48440384171433        1.65558327520720
C            3.43437582566773       -1.53611982221627        1.39814268760495
C            2.07359980721664       -1.34833912826381        1.52358577953175
C            1.56378706982187       -0.11059479421377        1.90693099245305
C            0.07591167686257        0.08852991964093        2.02837511116841
C           -0.57331550801188        0.13724332459896        0.64956322316920
C            0.13682331242147        1.14642471121336       -0.19345172289820
C           -0.19336453152043        2.49484510295787       -0.07315987948131
C            0.50429893740267        3.44962120059310       -0.78312355219932
C            1.55382820922834        3.07269341683810       -1.62086182430393
C            2.28084692337466        4.12119263557103       -2.36399018126620
O            2.03901768912555        5.30709679688951       -2.29209569318013
O            3.25615173567327        3.64531455592646       -3.14751437750777
C            1.89261718356748        1.72548218034239       -1.73593038622179
C            1.18954246674555        0.77334218208999       -1.02507494019866
C           -1.13122506760683       -1.12750163055118       -0.00996409683084
C           -1.13958029350423       -2.39447154922711        0.71767253774249
C           -1.03213626565115       -3.58826521945862        0.08556216127441
C           -0.91103428460098       -3.67768256702112       -1.32078701618231
C           -0.82311995614378       -4.98152716529545       -1.94716675057462
O           -0.83578983980068       -6.04854445717864       -1.35101119653585
O           -0.72146654314222       -4.93901762283446       -3.29544720060322
C           -0.89242058615776       -2.47590146091321       -2.06542634107393
C           -1.00175878148458       -1.26847863100441       -1.45895429014886
C           -2.10273011207656        0.04391552034091        0.52860839858767
C           -2.90604826765889       -0.22297790921814        1.71731752060733
C           -4.16008044447959        0.26968635371582        1.86192854027160
C           -4.76776349186083        1.06346698381038        0.86135289179064
C           -6.12021119327592        1.54587034581157        1.05657665929021
O           -6.80982237145793        1.32318650822946        2.04092662771088
O           -6.59118113488408        2.29420164990199        0.03254175862868
C           -4.02103129823427        1.35511653411907       -0.30318293948051
C           -2.76453816171569        0.87546085661462       -0.47315385591852
C            2.44437700138111        0.93501717308994        2.16173486562580
C            3.80828509958246        0.75596723267480        2.04058258159653
H            7.45563953899814        0.14860815343698        1.68885709699843
H            3.84137672545841       -2.49172387830472        1.10269445708449
H            1.39966555457627       -2.16736583251686        1.32050624956028
H           -0.33785461340407       -0.71059750358416        2.63807296826211
H           -0.12532773185308        1.03945373890049        2.52655944334063
H           -1.00591778293369        2.78931820116463        0.57395960610526
H            0.25501229601148        4.49706242462171       -0.70341985369132
H            3.70324886961024        4.37051674409139       -3.61385830264279
H            2.70690526819562        1.43373031992839       -2.37985821369572
H            1.45837880958645       -0.26823037136537       -1.11164931445125
H           -1.23956125086151       -2.38929622955722        1.78909203477971
H           -1.04136017605890       -4.51165028407543        0.64605183372628
H           -0.66819322083869       -5.84125837072006       -3.64678700882709
H           -0.79449573931605       -2.53681959328119       -3.13804398703384
H           -0.97765557103814       -0.37759196068533       -2.06269901851709
H           -2.49260208817078       -0.81837982662258        2.51195141708240
H           -4.73464676200581        0.06209460751111        2.75258618072005
H           -7.49685365341687        2.58052682554674        0.22780781722682
H           -4.47379626054882        1.97078583843438       -1.06462509422468
H           -2.22285518325502        1.13475114022250       -1.36675672946658
H            2.05970267740001        1.89916559975197        2.45910207788136
H            4.48837732423627        1.56868887271148        2.24118256208834
