60
 energy: -108.081176468403 gnorm: 0.000095247821 xtb: 6.7.1 (edcfbbe)
O            6.21637401277882       -2.12705949145965        1.34664650663237
C            5.76253766775608       -1.01222315489979        1.50110350019196
O            6.55817898868310        0.06359540924446        1.58204972489704
C            4.32748059370855       -0.69917357168000        1.61625591940984
C            3.40394608009645       -1.74318825221043        1.55843542168183
C            2.05325436440279       -1.48438388248580        1.66717852011711
C            1.59095974011234       -0.17990519988312        1.82662027398844
C            0.12377597156989        0.11209963367066        1.94681979532892
C           -0.61658083047834        0.16486315060775        0.57824223953226
C            0.10587365278084        1.23378625340162       -0.22596056104719
C           -0.35884436471048        2.54648658823194       -0.23280475420782
C            0.33435427372113        3.53881615951681       -0.89630857149787
C            1.52159053684234        3.24223390951676       -1.56353145333239
C            2.23473333931228        4.32345472005247       -2.26799615762480
O            1.86837890225030        5.47916480462009       -2.30894042659868
O            3.35568415600003        3.91900518649596       -2.88020068085085
C            2.00772628759735        1.93635014828524       -1.53859074215051
C            1.30997777961880        0.95071366361366       -0.86968668877670
C           -0.67215179245251       -1.19797249476703       -0.10410636646748
C           -1.04364073352172       -2.32391937651987        0.63057470454237
C           -1.16288187698231       -3.55943288049950        0.02977754565153
C           -0.93080333380518       -3.70283227184837       -1.33730126282014
C           -1.05938456759206       -5.03808516087902       -1.94861725774199
O           -1.36290346263392       -6.04592256615432       -1.34556413274075
O           -0.80703417593001       -5.05412957060459       -3.26420728281533
C           -0.60714022292418       -2.57630864259524       -2.08894503367273
C           -0.49172975488869       -1.34285740923573       -1.47743626187065
C           -2.09342760651435        0.51843962684100        0.74497273215949
C           -2.72887179589794        0.62150751673678        1.97741251680946
C           -4.08016600965897        0.90351970055251        2.05105217009509
C           -4.83010997816993        1.08754715339363        0.89254132113829
C           -6.26866954320821        1.38775875594732        1.01228984267153
O           -6.86798918329060        1.48261746896292        2.06265980303871
O           -6.88326208910512        1.55476338601302       -0.16619057885301
C           -4.20050684103443        0.98415701506402       -0.34792912792229
C           -2.85334869038147        0.70042436965580       -0.41208704249731
C            2.51942658955929        0.85657130309728        1.89085328048262
C            3.87321026195582        0.60751691217534        1.78901784093217
H            7.49001437904430       -0.19825591188910        1.50230015296605
H            3.76975702028355       -2.75142040893652        1.43205533676276
H            1.35205060922086       -2.30329845935946        1.62569633407832
H           -0.33055411904099       -0.64855399912786        2.57878693418494
H           -0.00234705699043        1.08660809921518        2.42072408832975
H           -1.27181703109180        2.79946100753295        0.28404954340821
H           -0.02737233883721        4.55615826859229       -0.90794063455145
H            3.78684035925336        4.66594051517062       -3.32670961343110
H            2.93420766848946        1.70240621814337       -2.03866061206048
H            1.70940054572296       -0.05106143233298       -0.85108141932939
H           -1.25985395261682       -2.24380425279831        1.68408483846734
H           -1.44125564115910       -4.43145081136826        0.60280001977702
H           -0.90517916830212       -5.95330448716813       -3.61776732481098
H           -0.45335689893881       -2.67197984234537       -3.15227420849039
H           -0.25910709362895       -0.48547591445730       -2.08903864509101
H           -2.18561485396292        0.49176918669797        2.89831482514497
H           -4.57588944706840        0.98643107197537        3.00687052422913
H           -7.82523762747771        1.75013756522255       -0.03312227765647
H           -4.77401630348434        1.12561288855195       -1.25022247448024
H           -2.37664300466070        0.62311068402326       -1.37689810336497
H            2.17655935257783        1.87187261580729        2.02483715366284
H            4.58533305051249        1.41597273160655        1.84096514181583
