60
 energy: -107.982532143831 gnorm: 0.000169475964 xtb: 6.7.1 (edcfbbe)
O            6.27709461968499       -1.47129925746855        1.27763050142712
C            5.71870754949671       -0.44859447323424        1.61505443731435
O            6.40643910880267        0.66140945521565        1.91522346098741
C            4.25738619964073       -0.29174754049110        1.73518879589290
C            3.43895518481778       -1.38676449147866        1.45655697785775
C            2.06823699291257       -1.27189066885002        1.55948548472981
C            1.48704464095165       -0.06559392452801        1.94134652706177
C           -0.01143550148072        0.05386470780976        2.03466683077358
C           -0.63320093225034        0.09233835200862        0.64301739755447
C            0.03494752183580        1.15650639737486       -0.16577913089684
C           -0.37888866114973        2.48058535140178       -0.03431161576238
C            0.27829456377587        3.48691959201381       -0.71101104358072
C            1.37030417429222        3.18752088621965       -1.52542017777191
C            2.05288453090267        4.28975401220289       -2.23213803663196
O            1.74212195961698        5.45846960605964       -2.14511308548005
O            3.07130623948737        3.88497573635688       -3.00058722916844
C            1.79240875035301        1.86502723885600       -1.65152014672322
C            1.12961146650278        0.86105709131988       -0.97417568874845
C           -1.10025562166990       -1.19209697217513       -0.05191240306075
C           -1.04240127535395       -2.46959099861116        0.65483895616156
C           -0.80578597239432       -3.63827825376425        0.01099686478356
C           -0.61223964035827       -3.69105712831273       -1.38893691424866
C           -0.37044380993210       -4.96925588981934       -2.02759912429263
O           -0.30688245786543       -6.04292886559236       -1.44687087701458
O           -0.21043859381211       -4.89324555407308       -3.36870088154276
C           -0.67830947243385       -2.48051117749265       -2.11641692536656
C           -0.91832273866640       -1.29809540656018       -1.49833837228533
C           -2.15071108683320       -0.09240770411799        0.48266325942738
C           -2.96328820270026       -0.42647025841393        1.64819996104407
C           -4.24775229108291       -0.01266945770073        1.77094780569890
C           -4.88024856003629        0.75829429640409        0.76809055337269
C           -6.26468343551367        1.15172767101153        0.93751942456727
O           -6.96189137370695        0.86945454214064        1.90097626362977
O           -6.75796018781838        1.88586867935143       -0.08621004258676
C           -4.12556638569870        1.11653820565623       -0.37242727858167
C           -2.83852506413910        0.71716303467586       -0.51987130784543
C            2.30662632934793        1.02302286951464        2.21880700542886
C            3.67995718925050        0.91718367545176        2.11969046611160
H            7.36039111176914        0.50515332985118        1.82106793272048
H            3.90058516622172       -2.31760909836500        1.16228614654098
H            1.44230498420966       -2.12398585368865        1.33970471422635
H           -0.39511906886908       -0.77636194486023        2.62202587681059
H           -0.27256758354682        0.98452313461576        2.54326689210981
H           -1.22403070185303        2.71539334645520        0.59522647733021
H           -0.03576518640373        4.51603179044778       -0.62233028177368
H            3.48703612282137        4.64317315934278       -3.44283673611375
H            2.63961707063906        1.63295212804489       -2.27698496487153
H            1.46304190870338       -0.16087012055131       -1.06902451764349
H           -1.19406012277012       -2.49282095426794        1.71987287645605
H           -0.76345946580338       -4.56945547686849        0.55688535507509
H           -0.05313308087520       -5.77982145594063       -3.72862147044850
H           -0.53940611490862       -2.51470099520620       -3.18570452142688
H           -0.95556768168124       -0.39918981371960       -2.08934791786547
H           -2.53226100915039       -1.00697323087307        2.44454367082485
H           -4.82822114975096       -0.26889810927046        2.64497342644761
H           -7.68422593175193        2.11142008140302        0.09133268262281
H           -4.59706159666373        1.71809349765476       -1.13379666389975
H           -2.29276956323496        1.02635706009032       -1.39497913927873
H            1.86658818706220        1.96338578847473        2.51558100113369
H            4.31254432137478        1.76326162805582        2.33701099063196
