  60
       -107.93738092
 O          6.1733284856       -1.5799332468        1.1001338851
 C          5.6571467712       -0.5459359157        1.4516926728
 O          6.3713258284        0.5527943447        1.7209699052
 C          4.1993076566       -0.3582085844        1.6270858794
 C          3.3575349620       -1.4495463719        1.4212732742
 C          1.9940171224       -1.3120497916        1.5757415227
 C          1.4463289857       -0.0848884906        1.9365516265
 C         -0.0465303170        0.0640336590        2.0522053404
 C         -0.6629496909        0.1033846906        0.6601628424
 C          0.0090662850        1.1622972167       -0.1469955598
 C         -0.4205574099        2.4821818133       -0.0365541682
 C          0.2441177526        3.4888719573       -0.7048716509
 C          1.3578144289        3.1924275930       -1.4881486212
 C          2.0498650159        4.3032990939       -2.1820760526
 O          1.7106593880        5.4608347342       -2.1175705934
 O          3.1041275553        3.9046041552       -2.9015753550
 C          1.7927195065        1.8738618782       -1.5965888484
 C          1.1220927154        0.8685585627       -0.9293322436
 C         -1.1236034669       -1.1857470718       -0.0283571482
 C         -1.0663967782       -2.4559902949        0.6913675268
 C         -0.7646841040       -3.6211211614        0.0691419145
 C         -0.5074942411       -3.6771797750       -1.3184053075
 C         -0.1853710946       -4.9583535065       -1.9295233476
 O         -0.1039910072       -6.0114888579       -1.3266061502
 O          0.0286718993       -4.8868447665       -3.2596188956
 C         -0.5937676487       -2.4801168550       -2.0624939810
 C         -0.8987692768       -1.3007436142       -1.4681931293
 C         -2.1752489261       -0.0889262055        0.4820116586
 C         -2.9961878875       -0.4008983296        1.6479987369
 C         -4.2731428247        0.0362562537        1.7638485990
 C         -4.8895163662        0.8062078692        0.7528203878
 C         -6.2719800330        1.2292632821        0.9243565125
 O         -6.9565706850        0.9796612350        1.8979970653
 O         -6.7533246304        1.9446601516       -0.1131884745
 C         -4.1312890961        1.1368135990       -0.3913641844
 C         -2.8501932489        0.7170511452       -0.5326864909
 C          2.2890215252        1.0013542068        2.1393216757
 C          3.6558205746        0.8709979119        1.9899550018
 H          7.3193462755        0.3794353703        1.5968119570
 H          3.7942148658       -2.3955472313        1.1406830689
 H          1.3444906314       -2.1574967305        1.4072653154
 H         -0.4446225832       -0.7563677608        2.6421918986
 H         -0.2868081216        1.0035057960        2.5544013795
 H         -1.2830674063        2.7102391441        0.5720668771
 H         -0.0795304104        4.5156862345       -0.6318687843
 H          3.5251380572        4.6645659353       -3.3371134859
 H          2.6563779850        1.6452206317       -2.2001781671
 H          1.4625121551       -0.1522355501       -1.0060601139
 H         -1.2733137005       -2.4714089011        1.7468678764
 H         -0.7193292354       -4.5465909454        0.6230249602
 H          0.2380733211       -5.7695468747       -3.6037687610
 H         -0.4182474817       -2.5215472570       -3.1258356910
 H         -0.9492436991       -0.4080412580       -2.0666921872
 H         -2.5724987814       -0.9802454590        2.4489383913
 H         -4.8591968514       -0.2000963797        2.6388354857
 H         -7.6755988734        2.1909027342        0.0608105751
 H         -4.5933534756        1.7342488902       -1.1613244399
 H         -2.2957270874        1.0040554665       -1.4092088321
 H          1.8696281024        1.9583994941        2.4138764917
 H          4.3068931789        1.7156442927        2.1494974005
