  44
  -87.5555831200000       0.455831445594498      !
 O         -2.4897271385        0.3764264623       -2.5320503763
 C         -2.6741271198       -0.3356953733       -1.5410494465
 O         -3.9003006116       -0.8965344532       -1.4223784759
 C         -4.1959775154       -1.7378892219       -0.3926611302
 C         -5.4537141301       -2.3079532347       -0.3675421984
 C         -5.8040819600       -3.1612871382        0.6749540580
 C         -4.8960148335       -3.4328618278        1.6926477477
 C         -3.6425279730       -2.8688248111        1.6786668267
 C         -3.2610624451       -2.0002206268        0.6309965847
 C         -1.9859617003       -1.3720257889        0.5918819128
 O         -1.1687250791       -1.5973796060        1.6100806743
 C         -1.6665176720       -0.5999976216       -0.5585436659
 C         -0.3043908896       -0.0376569739       -0.8933712665
 C          0.8587473051       -0.9234254784       -0.5877778361
 C          0.8927873525       -2.2817984139       -0.4503065196
 C          2.1908107784       -2.7917658582       -0.2608340006
 C          3.1299395619       -1.8038205711       -0.2766710353
 Br         4.9793018478       -2.0130691097       -0.0683363945
 S          2.4479729240       -0.2333698299       -0.5230618433
 C         -0.2548770507        1.3072696257       -0.1986932436
 C         -0.6023183699        2.5093866168       -0.8725453820
 O         -1.1177186595        2.5614093020       -2.0950288749
 C         -0.3088375017        3.7388029118       -0.2253871619
 C         -0.5308147098        4.9919183027       -0.8394424246
 C         -0.2556521471        6.1554427773       -0.1613638260
 C          0.2505798617        6.1155772181        1.1334291698
 C          0.4768137781        4.8940596132        1.7610339662
 C          0.2056584439        3.7183790341        1.0887335986
 O          0.4310118966        2.5457083968        1.7443572637
 C          0.2261528940        1.3489938330        1.1429425643
 O          0.5105107885        0.3475772873        1.8087811659
 H         -6.1453903024       -2.0786794169       -1.1617829548
 H         -6.7841023656       -3.6110247706        0.6859498627
 H         -5.1767952438       -4.0935598804        2.4985073257
 H         -2.9240023234       -3.0692027145        2.4564613881
 H         -0.4093536096       -0.9485346243        1.6617033397
 H         -0.2926942108        0.1442754525       -1.9787400357
 H          0.0186143983       -2.9071739104       -0.4794854616
 H          2.4207556291       -3.8319104256       -0.1181095619
 H         -1.5703921142        1.7192718277       -2.3775822773
 H         -0.9195254100        5.0008816012       -1.8444427878
 H         -0.4305834738        7.1074619117       -0.6386434095
 H          0.4739905415        7.0309387921        1.6579800199
 H          0.8633150882        4.8428263579        2.7659280602
  44
  -87.5549878400000       0.242790972840738      !
 O         -2.1594469591        0.7981025852       -2.5181970420
 C         -2.3070918648        0.0708263384       -1.5329025813
 O         -3.5018661241       -0.5536642545       -1.4168947666
 C         -3.7511288966       -1.4188860855       -0.3953525214
 C         -4.9764425750       -2.0571989400       -0.3756911192
 C         -5.2785580481       -2.9375595466        0.6583609922
 C         -4.3568824177       -3.1688370594        1.6739781303
 C         -3.1366027908       -2.5361099677        1.6659286969
 C         -2.8047488374       -1.6389657380        0.6267929497
 C         -1.5659676694       -0.9401644207        0.5945202405
 O         -0.7422201579       -1.1207322817        1.6147146246
 C         -1.2868207667       -0.1476575283       -0.5508111127
 C          0.0495030139        0.4745457961       -0.8816908640
 C          1.2516048620       -0.3600079779       -0.5783613983
 C          2.5408815083        0.0701871890       -0.4308279244
 C          3.4638778238       -0.9753161005       -0.2530037849
 C          2.8582758735       -2.1956317717       -0.2890018195
 Br         3.6822970738       -3.8662858223       -0.0956466854
 S          1.1487358233       -2.0874522084       -0.5367690238
 C          0.0363345809        1.8195181626       -0.1851719914
 C         -0.3553056763        3.0047395794       -0.8677862353
 O         -0.8492749121        3.0286731933       -2.1017256050
 C         -0.1381207204        4.2471126737       -0.2175790906
 C         -0.4183442082        5.4878312535       -0.8339694966
 C         -0.2302094349        6.6628547713       -0.1459950007
 C          0.2447855979        6.6484264084        1.1609691894
 C          0.5311467302        5.4396453203        1.7897573320
 C          0.3489898099        4.2530108429        1.1076069820
 O          0.6346709583        3.0930886755        1.7635580119
 C          0.4983009414        1.8855221835        1.1600324238
 O          0.8304405278        0.9024016165        1.8318001172
 H         -5.6800299261       -1.8587792818       -1.1677716673
 H         -6.2326106386       -3.4402366873        0.6655956687
 H         -4.6005326915       -3.8527793378        2.4724277589
 H         -2.4068295768       -2.7055440406        2.4404731003
 H         -0.0218489924       -0.4260351892        1.6768766785
 H          0.0536300400        0.6567087420       -1.9671808897
 H          2.8203332467        1.1080964752       -0.4363281847
 H          4.5191766661       -0.8374586089       -0.1058358335
 H         -1.2786215441        2.1730096883       -2.3771576179
 H         -0.7833648053        5.4777914564       -1.8477406394
 H         -0.4508903254        7.6045974886       -0.6247913228
 H          0.3971383208        7.5730770167        1.6944864136
 H          0.8949806935        5.4073840165        2.8038811088
  44
  -87.5547656700000       0.191924435826372      !
 O         -2.6814133108        0.4881635566       -2.3764871386
 C         -2.8055073771       -0.3063666202       -1.4414937412
 O         -3.9882397627       -0.9614358752       -1.3590022307
 C         -4.1964310271       -1.9267152389       -0.4201944093
 C         -5.3807757890       -2.6356562601       -0.4738941970
 C         -5.6395811843       -3.6195734273        0.4760620656
 C         -4.7195875546       -3.8775052331        1.4863670002
 C         -3.5404920132       -3.1735787419        1.5528950824
 C         -3.2486436497       -2.1780720482        0.5938515392
 C         -2.0427101666       -1.4236156497        0.6236800682
 O         -1.2288109125       -1.6157625955        1.6489663304
 C         -1.7748482066       -0.5754790477       -0.4850055846
 C         -0.4281218357        0.0186122739       -0.8270042892
 C          0.7473394589       -0.8610846706       -0.5438214628
 C          0.8049706791       -2.2219774756       -0.4599558118
 C          2.1107359011       -2.7160343278       -0.2760626689
 C          3.0311373651       -1.7127218033       -0.2419029825
 Br         4.8821696989       -1.8952362502       -0.0230201306
 S          2.3226844040       -0.1458703290       -0.4319894821
 C         -0.3455898801        1.3656156236       -0.1396701635
 C         -0.6150112489        2.5692002798       -0.8467040469
 O         -1.1842170875        2.6190120328       -2.0441158883
 C         -0.1566267908        3.7845021596       -0.2727228350
 C         -0.2184463900        5.0198581690       -0.9551546945
 C          0.2409322462        6.1676351398       -0.3539682923
 C          0.7730168090        6.1279493074        0.9302075731
 C          0.8348980488        4.9248725814        1.6276316272
 C          0.3816133473        3.7643496630        1.0318759061
 O          0.4492699268        2.6105815045        1.7534736988
 C          0.1389741774        1.4122691316        1.2004306506
 O          0.3358165944        0.4193625033        1.9075228892
 H         -6.0860849928       -2.4139589983       -1.2581751398
 H         -6.5581040844       -4.1819622492        0.4209073796
 H         -4.9313939042       -4.6381554944        2.2221383361
 H         -2.8121313767       -3.3618433642        2.3245521868
 H         -0.5253640083       -0.9069674829        1.7315391727
 H         -0.4346050885        0.2050882382       -1.9120681459
 H         -0.0566702350       -2.8614358495       -0.5232791970
 H          2.3576256963       -3.7563585270       -0.1714816519
 H         -1.7077991039        1.7999298363       -2.2700382798
 H         -0.6257350821        5.0274231731       -1.9528075384
 H          0.1941236753        7.1058776319       -0.8852370677
 H          1.1440041929        7.0287183115        1.3927899838
 H          1.2338155731        4.8763361765        2.6278044317
  44
  -87.5542349500000       0.109453145738392      !
 O         -2.3403098705        0.9402336763       -2.3099984204
 C         -2.4213665437        0.1268922935       -1.3874749569
 O         -3.5608273534       -0.6014907078       -1.3192265273
 C         -3.7077164812       -1.5983083161       -0.4025230662
 C         -4.8427322422       -2.3832558506       -0.4767376626
 C         -5.0378582652       -3.4019474382        0.4502113895
 C         -4.1058357546       -3.6216461051        1.4588764886
 C         -2.9764415805       -2.8428478817        1.5457637270
 C         -2.7501607033       -1.8098575762        0.6106300122
 C         -1.5972649707       -0.9768832674        0.6627436341
 O         -0.7748102145       -1.1323933962        1.6855759718
 C         -1.3812780241       -0.0941172029       -0.4285183083
 C         -0.0574667492        0.5601720862       -0.7536743784
 C          1.1391586040       -0.2878721674       -0.4589814021
 C          2.4050995638        0.1091532443       -0.1386341912
 C          3.3143546379       -0.9589556252       -0.0199846895
 C          2.7220714301       -2.1587864024       -0.2738702880
 Br         3.5345771033       -3.8467135547       -0.2323048471
 S          1.0423613683       -2.0076547731       -0.6605358311
 C         -0.0499351951        1.9071844639       -0.0660229647
 C         -0.3488279668        3.0931656378       -0.7969462459
 O         -0.8729932056        3.1006424586       -2.0172887974
 C          0.0244615592        4.3347661945       -0.2215680946
 C         -0.0734620433        5.5600868813       -0.9192862686
 C          0.2908400642        6.7365381690       -0.3085644139
 C          0.7612803775        6.7374608607        1.0000592122
 C          0.8589866131        5.5442887370        1.7117242937
 C          0.5025567588        4.3555882248        1.1068174297
 O          0.6027968116        3.2115789735        1.8414666785
 C          0.3741577259        1.9909518061        1.2911050811
 O          0.5947362769        1.0210628291        2.0225241633
 H         -5.5588966081       -2.1919703565       -1.2592362545
 H         -5.9162606164       -4.0234439350        0.3783152989
 H         -4.2677400434       -4.4126701753        2.1749069299
 H         -2.2377640314       -3.0007245889        2.3143469153
 H         -0.1368396335       -0.3645155255        1.7998218725
 H         -0.0590568784        0.7444146794       -1.8390657666
 H          2.6839249029        1.1350149749        0.0186238799
 H          4.3506828964       -0.8485724387        0.2407976825
 H         -1.3852942997        2.2713374890       -2.2307874513
 H         -0.4332336074        5.5369269720       -1.9347831121
 H          0.2177277353        7.6663923747       -0.8514414605
 H          1.0566195486        7.6615318772        1.4710626533
 H          1.2103847134        5.5265010190        2.7305956608
