  70
  -111.647362121000       0.581929253556151      !
 C         -7.5981276803       -0.5078475180       -1.1644953601
 C         -6.7164959976       -0.0023160799       -0.0067102293
 C         -7.5973890417        0.5096433836        1.1490380297
 C         -5.8748935883       -1.1550450858        0.4996030681
 C         -6.4915413204       -2.2935477634        0.9998736221
 C         -5.7651233302       -3.3711169282        1.4730603427
 C         -4.3794076981       -3.3242318785        1.4532557364
 C         -3.7387711603       -2.2083377514        0.9642970591
 C         -4.4725249578       -1.1152333167        0.4819416211
 N         -3.8047707472       -0.0098931530        0.0013451221
 C         -2.3803437960       -0.0158535471       -0.0013744709
 C         -1.6950311791       -0.5792527494       -1.0693075841
 C         -0.3143692575       -0.5864926424       -1.0695427315
 C          0.3904132048       -0.0263386389       -0.0096615735
 C          1.8648645210       -0.0242060117       -0.0144510652
 C          2.5442915748        1.1953622854        0.0780417646
 C          1.8118240012        2.3787796522        0.0097649033
 N          1.1499221555        3.3201758532       -0.0919780329
 C          3.9885669161        1.1431006836        0.1300585466
 C          4.8303578373        2.3044145171        0.3431934828
 C          6.1722653235        2.2941112259       -0.0681252271
 C          6.9714820773        3.3908892830        0.1734613377
 C          6.4146889383        4.4851639899        0.8255983966
 N          5.1574222603        4.4955269189        1.2304811765
 C          4.3861039129        3.4571761149        1.0073360421
 N          4.5973081886       -0.0063752554       -0.0153763248
 C          4.0066034088       -1.1810765327       -0.1595239104
 C          4.8599656206       -2.3174744978       -0.3519588511
 C          4.4459408086       -3.6136388269       -0.7087200647
 C          5.3795566674       -4.6128326272       -0.8845397842
 C          6.7274087383       -4.3196231754       -0.7051378475
 N          7.1190640360       -3.0985137229       -0.3768694869
 C          6.2561263000       -2.1417138084       -0.2077016131
 C          2.5552464220       -1.2340356271       -0.1062419194
 C          1.8111638387       -2.4112167900       -0.0574888784
 N          1.1275304014       -3.3405762727        0.0139892444
 C         -0.3040516433        0.5403679737        1.0536616392
 C         -1.6846598562        0.5429370776        1.0623299812
 C         -4.4641081732        1.0988496374       -0.4835968017
 C         -3.7219251029        2.1884135317       -0.9610486328
 C         -4.3540610132        3.3068161914       -1.4550426371
 C         -5.7393855755        3.3597640829       -1.4846584610
 C         -6.4740830755        2.2860716373       -1.0154348525
 C         -5.8661427567        1.1452025422       -0.5101252609
 H         -8.2310492131        0.2879893473       -1.5463767933
 H         -8.2369119800       -1.3228910075       -0.8371072070
 H         -6.9709461323       -0.8682163114       -1.9774835509
 H         -6.9698196903        0.8695244547        1.9621800096
 H         -8.2338711987       -0.2830236315        1.5316355185
 H         -8.2325684750        1.3265875914        0.8187966527
 H         -7.5692535088       -2.3474898334        1.0232112423
 H         -6.2768552851       -4.2408694452        1.8544931862
 H         -3.7973938246       -4.1560789659        1.8181844376
 H         -2.6612243752       -2.1733888788        0.9494319762
 H         -2.2467998333       -1.0086238933       -1.8918718285
 H          0.2209933376       -1.0186407694       -1.9008815429
 H          6.5570990760        1.4256559315       -0.5817689827
 H          8.0038715965        3.4074864311       -0.1392140957
 H          6.9874872859        5.3771058818        1.0354439368
 H          3.3784527655        3.5319987678        1.3897659058
 H          3.3995171079       -3.8289573516       -0.8520644314
 H          5.0740166983       -5.6108781274       -1.1577691144
 H          7.5016500128       -5.0622194535       -0.8237279781
 H          6.6320354880       -1.1634724928        0.0629534455
 H          0.2397289639        0.9708893402        1.8803641552
 H         -2.2279980438        0.9763084024        1.8882319802
 H         -2.6447058161        2.1494482363       -0.9381538626
 H         -3.7654874076        4.1358737172       -1.8158031478
 H         -6.2444314233        4.2310730582       -1.8711018629
 H         -7.5513375379        2.3447485513       -1.0465529411
  70
  -111.646924769800       0.366334224762856      !
 C         -7.5987383923       -0.3444482466       -1.2076078038
 C         -6.7157595588       -0.0006035197        0.0071805330
 C         -7.5949651243        0.3438985719        1.2245926099
 C         -5.8701490033       -1.2093612693        0.3484184640
 C         -6.4838495807       -2.4050464775        0.6957025061
 C         -5.7549818488       -3.5321672914        1.0284727083
 C         -4.3696547307       -3.4761769210        1.0253456565
 C         -3.7319978556       -2.3049180420        0.6843344031
 C         -4.4679741944       -1.1639530685        0.3340928169
 N         -3.8033110734       -0.0052351028       -0.0074188043
 C         -2.3798629173       -0.0107695411       -0.0169924701
 C         -1.6977553577       -0.5465130035       -1.1012262626
 C         -0.3169621136       -0.5604652032       -1.1034405810
 C          0.3904433379       -0.0307838302       -0.0305807183
 C          1.8657246829       -0.0310807776       -0.0328180920
 C          2.5412923571        1.1924459110        0.0211313603
 C          1.7942991421        2.3651959436       -0.0722921893
 N          1.1143920911        3.2924085970       -0.1847452338
 C          3.9855756708        1.1455672910        0.0662525291
 C          4.8298125389        2.3164160905        0.2028743673
 C          6.1720755965        2.2734549265       -0.2062719328
 C          6.9739365605        3.3828847338       -0.0454274445
 C          6.4193431495        4.5238928602        0.5236041604
 N          5.1622966233        4.5662644666        0.9272461194
 C          4.3888486744        3.5155803531        0.7821396545
 N          4.5938425556       -0.0108261943       -0.0168008164
 C          4.0068814016       -1.1927115457       -0.1035893745
 C          4.8670646853       -2.3366340938       -0.2013849015
 C          4.4640583074       -3.6594636419       -0.4580709820
 C          5.4047194664       -4.6642205473       -0.5408135084
 C          6.7484124008       -4.3501536788       -0.3678804628
 N          7.1299249772       -3.1046896906       -0.1325449569
 C          6.2602281884       -2.1426793447       -0.0519010863
 C          2.5547148230       -1.2437627518       -0.0794776883
 C          1.7992694567       -2.4133148479       -0.0280089775
 N          1.1032612988       -3.3338375506        0.0361435185
 C         -0.2998599653        0.5107449891        1.0482509192
 C         -1.6800678796        0.5163708986        1.0603970311
 C         -4.4672813071        1.1572452058       -0.3371632887
 C         -3.7310704943        2.2977614591       -0.6882139884
 C         -4.3685099850        3.4724671016       -1.0175763331
 C         -5.7536011872        3.5321460878       -1.0086323913
 C         -6.4827911636        2.4054698890       -0.6750898674
 C         -5.8694025172        1.2068314485       -0.3376989305
 H         -8.2347957472        0.4948429330       -1.4733783559
 H         -8.2343753655       -1.1992582461       -0.9946900789
 H         -6.9729412710       -0.5862369501       -2.0646717890
 H         -8.2316190352       -0.4943082810        1.4924813334
 H         -8.2301765321        1.1993757047        1.0140394465
 H         -6.9664712414        0.5848693687        2.0797035953
 H         -7.5610464224       -2.4641910164        0.7111163896
 H         -6.2641632568       -4.4452543169        1.2939578559
 H         -3.7846655081       -4.3429363807        1.2912823128
 H         -2.6546405647       -2.2637564945        0.6882722193
 H         -2.2521030706       -0.9528201245       -1.9337590236
 H          0.2158544027       -0.9760154739       -1.9450197003
 H          6.5550303799        1.3691044977       -0.6554535936
 H          8.0063146339        3.3740494801       -0.3588780034
 H          6.9933255550        5.4285081876        0.6648966846
 H          3.3810552510        3.6216644408        1.1562966223
 H          3.4208056159       -3.8921104480       -0.5957377664
 H          5.1072130968       -5.6828353042       -0.7356981222
 H          7.5273768438       -5.0955757139       -0.4152429955
 H          6.6280665943       -1.1439465970        0.1455344100
 H          0.2477555897        0.9207130631        1.8829690780
 H         -2.2205124135        0.9333631607        1.8965957419
 H         -2.6539573113        2.2541952137       -0.6997964324
 H         -3.7835879244        4.3401069454       -1.2803376945
 H         -6.2629345598        4.4479036889       -1.2651482313
 H         -7.5608374697        2.4665906095       -0.6840750407
  70
  -111.645075032800       5.173652168099237E-002 !
 C         -7.6490021916       -0.1625961637       -1.1716531019
 C         -6.7144652581       -0.0362046671        0.0465868876
 C         -7.5402726947        0.0751044472        1.3428845203
 C         -5.8530296830       -1.2785629819        0.1327846156
 C         -6.4516304217       -2.5242466625        0.2624447716
 C         -5.7088619860       -3.6858968324        0.3679786834
 C         -4.3243461567       -3.6147156135        0.3588682168
 C         -3.7014129690       -2.3937488526        0.2330054667
 C         -4.4515969573       -1.2158717630        0.1050018495
 N         -3.8028841877       -0.0063536332       -0.0320089026
 C         -2.3800755995        0.0105712759       -0.0352385603
 C         -1.6842801281       -0.3720707099       -1.1744115059
 C         -0.3035591056       -0.3745977613       -1.1647070507
 C          0.3889158120        0.0145709929       -0.0245724718
 C          1.8665115252        0.0062107352       -0.0137877339
 C          2.5538138045        1.2227615062        0.0241966990
 C          1.8069551260        2.3971224834        0.0948945207
 N          1.1171502083        3.3210310998        0.1656321176
 C          3.9979728388        1.1593168958        0.0246404063
 C          4.8645116608        2.3232861523        0.0241178925
 C          6.1815950118        2.2211418130        0.4985891828
 C          7.0091543506        3.3230234811        0.4679133318
 C          6.5041551683        4.5156538510       -0.0374050342
 N          5.2710225371        4.6157345385       -0.5000280403
 C          4.4737758567        3.5725617384       -0.4791118076
 N          4.5901657033       -0.0078882070        0.0280107607
 C          3.9904243752       -1.1869409188        0.0001975904
 C          4.8384529195       -2.3432538570       -0.0005730915
 C          4.4182630428       -3.6841511755        0.0635130281
 C          5.3498587545       -4.7005745547        0.0676025279
 C          6.7020405873       -4.3810942447        0.0067937199
 N          7.0994716263       -3.1197265139       -0.0542719075
 C          6.2385541869       -2.1469457713       -0.0592396218
 C          2.5380595189       -1.2162808030       -0.0357149396
 C          1.7526476953       -2.3669240917       -0.0627272025
 N          1.0175448355       -3.2596539225       -0.0796461363
 C         -0.3132050826        0.4094737971        1.1075321512
 C         -1.6938506977        0.4026976428        1.1064290651
 C         -4.4833594029        1.1871258106       -0.1500207051
 C         -3.7643166992        2.3776011285       -0.3293624437
 C         -4.4174953394        3.5841886517       -0.4394296851
 C         -5.8019989375        3.6277388121       -0.3773490919
 C         -6.5149127248        2.4534394932       -0.2186647617
 C         -5.8853489493        1.2212345430       -0.1084956833
 H         -8.2962277003        0.7055466308       -1.2554123330
 H         -8.2757844318       -1.0457635292       -1.0895256739
 H         -7.0607585072       -0.2418982602       -2.0838920210
 H         -8.1882114220        0.9464272162        1.3149239597
 H         -6.8754459463        0.1683723261        2.1995567146
 H         -8.1594414521       -0.8061632459        1.4839971413
 H         -7.5281743796       -2.5964633809        0.2843955217
 H         -6.2066978834       -4.6380643210        0.4638584401
 H         -3.7280627630       -4.5089116107        0.4518100080
 H         -2.6247539509       -2.3440041577        0.2352041280
 H         -2.2280132963       -0.6719997056       -2.0575606317
 H          0.2417022824       -0.6766276972       -2.0460461911
 H          6.5253794941        1.2770166868        0.8944350134
 H          8.0230118823        3.2683145431        0.8326253642
 H          7.1000461692        5.4162738540       -0.0779209672
 H          3.4888014778        3.7282239212       -0.8940162659
 H          3.3683377009       -3.9220816236        0.1131005257
 H          5.0390001309       -5.7324137867        0.1177638227
 H          7.4752768538       -5.1340306374        0.0062005371
 H          6.6189524533       -1.1350642307       -0.1159316327
 H          0.2242483964        0.7139517416        1.9925924532
 H         -2.2452345566        0.7012486793        1.9852511869
 H         -2.6880550314        2.3473502285       -0.3829833622
 H         -3.8455747065        4.4889204898       -0.5741711463
 H         -6.3232950345        4.5687151176       -0.4581034388
 H         -7.5922873776        2.5047527267       -0.1808180631
