  70
  -112.050214950000       0.317396842066795      !
 C         -7.5983886720       -0.3412339779       -1.2107168618
 C         -6.7157490595       -0.0112453167        0.0081540575
 C         -7.5952922485        0.3165990216        1.2299143249
 C         -5.8681861094       -1.2228523398        0.3341008346
 C         -6.4799519868       -2.4237564866        0.6664703023
 C         -5.7492612288       -3.5538104434        0.9849896553
 C         -4.3640242176       -3.4956087190        0.9823616842
 C         -3.7282627008       -2.3191698852        0.6559550496
 C         -4.4660866793       -1.1750652007        0.3201401331
 N         -3.8032993532       -0.0111175809       -0.0069278638
 C         -2.3798458721       -0.0142951182       -0.0167781687
 C         -1.6970782496       -0.5353434169       -1.1077372611
 C         -0.3162651973       -0.5470972456       -1.1103280011
 C          0.3904860881       -0.0297848632       -0.0310209853
 C          1.8657656913       -0.0277357778       -0.0334775460
 C          2.5394214385        1.1960791261        0.0356946952
 C          1.7905733091        2.3687322136       -0.0429225887
 N          1.1091934166        3.2962112508       -0.1436532565
 C          3.9837840017        1.1509083495        0.0800140149
 C          4.8262051085        2.3212790518        0.2311676629
 C          6.1684660594        2.2855551199       -0.1786808612
 C          6.9686117144        3.3941417379       -0.0040695976
 C          6.4123228224        4.5270600668        0.5792905759
 N          5.1552783091        4.5623973272        0.9836153498
 C          4.3834560565        3.5123992358        0.8254725642
 N          4.5938510389       -0.0033969747       -0.0176065913
 C          4.0087309095       -1.1850233083       -0.1191067182
 C          4.8706920170       -2.3262782187       -0.2313489623
 C          4.4697194371       -3.6464204082       -0.5045256223
 C          5.4119424289       -4.6485828656       -0.5999846358
 C          6.7551695166       -4.3345958915       -0.4233275982
 N          7.1347661878       -3.0915794386       -0.1724657688
 C          6.2635742103       -2.1320223471       -0.0796510584
 C          2.5566502502       -1.2386541274       -0.0954241218
 C          1.8030496927       -2.4099446760       -0.0584987152
 N          1.1084975809       -3.3322911588       -0.0057798900
 C         -0.3004872423        0.4971031196        1.0546100407
 C         -1.6807002524        0.5004078390        1.0670274152
 C         -4.4691476802        1.1543571219       -0.3219883131
 C         -3.7347857701        2.3003363797       -0.6588330909
 C         -4.3741225085        3.4780723412       -0.9733621753
 C         -5.7593041549        3.5354582667       -0.9634689425
 C         -6.4866698596        2.4035482932       -0.6439586339
 C         -5.8713450472        1.2017430883       -0.3216978515
 H         -8.2358063774        0.5003198906       -1.4658607124
 H         -8.2326481234       -1.1996415191       -1.0084301941
 H         -6.9723550356       -0.5712848670       -2.0708336931
 H         -8.2305855746       -0.5258968415        1.4873757960
 H         -8.2318802506        1.1736472489        1.0301861504
 H         -6.9670354826        0.5478272930        2.0878847240
 H         -7.5570521179       -2.4847818898        0.6812995926
 H         -6.2569651029       -4.4709501193        1.2390911650
 H         -3.7776314485       -4.3647109984        1.2373350258
 H         -2.6509706914       -2.2763681811        0.6602506641
 H         -2.2509257376       -0.9320611453       -1.9452130312
 H          0.2170631951       -0.9512359065       -1.9571241101
 H          6.5527650357        1.3875047508       -0.6392110556
 H          8.0009503846        3.3908554493       -0.3177571352
 H          6.9849083675        5.4307353802        0.7318192335
 H          3.3755594644        3.6122048497        1.2010762829
 H          3.4268102974       -3.8789634844       -0.6449432220
 H          5.1160025826       -5.6651428453       -0.8075695359
 H          7.5352948970       -5.0781413612       -0.4801373566
 H          6.6298776284       -1.1352642371        0.1302252035
 H          0.2466227135        0.8974435581        1.8943178779
 H         -2.2216598080        0.9060437844        1.9084627150
 H         -2.6576074822        2.2586110602       -0.6711177749
 H         -3.7906063060        4.3498533444       -1.2253204502
 H         -6.2701164968        4.4535556530       -1.2084195199
 H         -7.5648122279        2.4630828457       -0.6520199315
  70
  -112.050077270000       0.274365344656720      !
 C         -7.5975143948       -0.5051592810       -1.1696546126
 C         -6.7164851136       -0.0127849067       -0.0057569586
 C         -7.5979887897        0.4832731882        1.1564421298
 C         -5.8729908523       -1.1704416250        0.4859546288
 C         -6.4877682438       -2.3160886843        0.9720152980
 C         -5.7595816973       -3.3983575980        1.4315611889
 C         -4.3739446497       -3.3490509611        1.4121428627
 C         -3.7351411277       -2.2261146478        0.9371064839
 C         -4.4706893718       -1.1282083840        0.4685882605
 N         -3.8047502621       -0.0158873273        0.0017772421
 C         -2.3803161820       -0.0195751003       -0.0012250064
 C         -1.6942974038       -0.5684760760       -1.0762315799
 C         -0.3136258789       -0.5735431296       -1.0767592074
 C          0.3904524486       -0.0256020994       -0.0100477975
 C          1.8648977882       -0.0210929702       -0.0150257220
 C          2.5424255139        1.1982871406        0.0926367259
 C          1.8080904383        2.3813145565        0.0392956520
 N          1.1446952472        3.3228701501       -0.0505507180
 C          3.9867896956        1.1476474265        0.1437836923
 C          4.8267925103        2.3075217030        0.3713253584
 C          6.1686462813        2.3044796937       -0.0402862839
 C          6.9661809735        3.3994000679        0.2149026330
 C          6.4077794754        4.4845442949        0.8807766832
 N          5.1505652464        4.4878595404        1.2859412755
 C          4.3808402965        3.4511746071        1.0499201179
 N          4.5973099192        0.0010412121       -0.0161269661
 C          4.0084253825       -1.1726890427       -0.1748910857
 C          4.8635379236       -2.3052452666       -0.3816700686
 C          4.4514884821       -3.5974881678       -0.7545783932
 C          5.3866420166       -4.5929331805       -0.9430365840
 C          6.7340620391       -4.2998764532       -0.7601730286
 N          7.1238550496       -3.0823607037       -0.4166921814
 C          6.2594449739       -2.1291118294       -0.2354266669
 C          2.5571621456       -1.2285917031       -0.1220644896
 C          1.8149358786       -2.4074588417       -0.0879517616
 N          1.1327735541       -3.3387137152       -0.0280203818
 C         -0.3047245040        0.5266493849        1.0603920033
 C         -1.6853335920        0.5269404747        1.0692936501
 C         -4.4659071969        1.0978053677       -0.4691422572
 C         -3.7255140415        2.1944289669       -0.9330173457
 C         -4.3594861546        3.3179368841       -1.4128711928
 C         -5.7448969927        3.3690748709       -1.4416189791
 C         -6.4778308581        2.2884362809       -0.9857737577
 C         -5.8680171741        1.1422839670       -0.4948830867
 H         -8.2317473467        0.2944030274       -1.5414449966
 H         -8.2349645891       -1.3252422429       -0.8524079271
 H         -6.9699029409       -0.8543307140       -1.9871846323
 H         -6.9708501156        0.8339264952        1.9739364095
 H         -8.2331628028       -0.3151229982        1.5291737680
 H         -8.2345041982        1.3032907841        0.8365524687
 H         -7.5653905709       -2.3720120928        0.9948329442
 H         -6.2698848894       -4.2736225465        1.8021444733
 H         -3.7905655958       -4.1844882650        1.7665382257
 H         -2.6576529934       -2.1892893072        0.9225228275
 H         -2.2455279896       -0.9883767994       -1.9040288902
 H          0.2222763337       -0.9944025904       -1.9135240872
 H          6.5547572051        1.4431319809       -0.5648241712
 H          7.9984913080        3.4215344636       -0.0976912780
 H          6.9792122209        5.3746866509        1.1016944049
 H          3.3731364095        3.5196178773        1.4334044851
 H          3.4053802030       -3.8126382103       -0.9004556140
 H          5.0826233096       -5.5879568463       -1.2287012307
 H          7.5094480102       -5.0397116401       -0.8881687107
 H          6.6338634632       -1.1537479605        0.0474055591
 H          0.2385169261        0.9476358538        1.8923428357
 H         -2.2292142083        0.9490786041        1.9006386315
 H         -2.6482311523        2.1568725479       -0.9107699051
 H         -3.7722741181        4.1523718844       -1.7633047397
 H         -6.2513736107        4.2443613373       -1.8170443096
 H         -7.5551812193        2.3458056950       -1.0159969606
  70
  -112.049807170000       0.206157855917235      !
 C         -7.6492277220       -0.1600576512       -1.1705297245
 C         -6.7143811434       -0.0472124441        0.0488023042
 C         -7.5398208345        0.0468547353        1.3466990166
 C         -5.8509858441       -1.2891967287        0.1193648611
 C         -6.4476017504       -2.5373104519        0.2339250062
 C         -5.7029904494       -3.6990151748        0.3248624578
 C         -4.3185904833       -3.6255751629        0.3160791393
 C         -3.6976022821       -2.4021853582        0.2050023233
 C         -4.4496636146       -1.2239900226        0.0917994786
 N         -3.8028827621       -0.0118707299       -0.0305755960
 C         -2.3801035726        0.0073043117       -0.0341613524
 C         -1.6841899098       -0.3602102379       -1.1782323542
 C         -0.3034627124       -0.3607102260       -1.1691076265
 C          0.3888825143        0.0154767662       -0.0245456479
 C          1.8664937654        0.0092813162       -0.0144509369
 C          2.5519259645        1.2263395482        0.0382271328
 C          1.8032780288        2.3985793813        0.1236660846
 N          1.1120718623        3.3204743131        0.2060404358
 C          3.9961816296        1.1651392423        0.0373170707
 C          4.8609155979        2.3303724101        0.0507729894
 C          6.1783528627        2.2244453657        0.5234288255
 C          7.0041910588        3.3279061358        0.5059851930
 C          6.4971344258        4.5258772404        0.0155804339
 N          5.2636558982        4.6297255079       -0.4452867218
 C          4.4680352954        3.5851362932       -0.4368916036
 N          4.5901836688       -0.0010970257        0.0260901071
 C          3.9922584369       -1.1806491200       -0.0159908158
 C          4.8420772274       -2.3355454238       -0.0313259982
 C          4.4239922097       -3.6777813050        0.0164227110
 C          5.3571633285       -4.6927287062        0.0076354752
 C          6.7088231085       -4.3704228625       -0.0497741987
 N          7.1042738019       -3.1077829946       -0.0954721985
 C          6.2418481215       -2.1363542016       -0.0881281651
 C          2.5399259740       -1.2118025190       -0.0516853144
 C          1.7562867994       -2.3632458465       -0.0925421443
 N          1.0225610960       -3.2568415367       -0.1201528347
 C         -0.3133785010        0.3953283275        1.1126109422
 C         -1.6940122988        0.3864201111        1.1119724291
 C         -4.4852554306        1.1819111797       -0.1336230633
 C         -3.7681328347        2.3756192919       -0.2985881401
 C         -4.4232259695        3.5824529540       -0.3935411896
 C         -5.8077694447        3.6230837706       -0.3303800324
 C         -6.5187967879        2.4458141099       -0.1858741903
 C         -5.8872787519        1.2133270296       -0.0911251545
 H         -8.2978323852        0.7080428697       -1.2433435690
 H         -8.2746065669       -1.0451419015       -1.0990268800
 H         -7.0612413346       -0.2272150291       -2.0839087230
 H         -8.1891204350        0.9174473287        1.3297190254
 H         -6.8747831522        0.1306083619        2.2041901024
 H         -8.1575646169       -0.8370439098        1.4772029375
 H         -7.5240232964       -2.6114651417        0.2554126843
 H         -6.1993104848       -4.6530630092        0.4092163968
 H         -3.7208836820       -4.5199190528        0.3977744869
 H         -2.6210208124       -2.3507979200        0.2073856700
 H         -2.2278249673       -0.6500950798       -2.0647893133
 H          0.2418993931       -0.6510253203       -2.0543127235
 H          6.5237644234        1.2760567457        0.9074910926
 H          8.0182837447        3.2702899746        0.8695940920
 H          7.0916123359        5.4278527776       -0.0140870619
 H          3.4826484264        3.7443604024       -0.8494583902
 H          3.3744575064       -3.9179356461        0.0634954273
 H          5.0479247592       -5.7255889869        0.0452198865
 H          7.4832247764       -5.1220920881       -0.0599388028
 H          6.6206544516       -1.1232616269       -0.1325159651
 H          0.2239706218        0.6897284918        2.0011373979
 H         -2.2454925237        0.6732780259        1.9946203210
 H         -2.6918479813        2.3477034757       -0.3530043043
 H         -3.8527639576        4.4896621033       -0.5173669662
 H         -6.3305564609        4.5641709810       -0.3993429998
 H         -7.5962338208        2.4949829963       -0.1469714439
  70
  -112.049788290000       0.202079957359250      !
 C         -7.6581355730       -0.1446248959       -1.1385973186
 C         -6.7132961791       -0.0247349238        0.0718981129
 C         -7.5291738913        0.0928471711        1.3732237444
 C         -5.8604305701       -1.2732040732        0.1522891680
 C         -6.4671446279       -2.5139004208        0.2919305064
 C         -5.7323517291       -3.6807962771        0.3934744421
 C         -4.3474660229       -3.6202384162        0.3695013497
 C         -3.7165143272       -2.4045298736        0.2329159301
 C         -4.4589063022       -1.2212632626        0.1092930060
 N         -3.8022502600       -0.0170662201       -0.0372583940
 C         -2.3795411072       -0.0089035731       -0.0503396202
 C         -1.6916863369       -0.4030784356       -1.1904772583
 C         -0.3106368811       -0.4077767321       -1.1903430623
 C          0.3901725327       -0.0089896900       -0.0587826312
 C          1.8674828750       -0.0106066806       -0.0518972273
 C          2.5460880816        1.2107034390        0.0064299402
 C          1.7951113929        2.3821634398        0.0803275290
 N          1.1051088658        3.3058195394        0.1524349798
 C          3.9896071507        1.1562557648        0.0304098334
 C          4.8433484843        2.3306299552        0.0690013019
 C          6.1357649745        2.2469796389        0.6078614885
 C          6.9474761325        3.3615389943        0.6169232907
 C          6.4506969026        4.5453639045        0.0847382867
 N          5.2416197312        4.6271090368       -0.4412233059
 C          4.4596791236        3.5723166403       -0.4568937569
 N          4.5917605959       -0.0044221857        0.0265780635
 C          4.0013122468       -1.1884758119       -0.0349359075
 C          4.8583856854       -2.3368147781       -0.0500637858
 C          4.4498589438       -3.6833003202       -0.0766729794
 C          5.3901072934       -4.6914250013       -0.0764989353
 C          6.7407289926       -4.3593900332       -0.0520740268
 N          7.1270925725       -3.0930382087       -0.0299762920
 C          6.2583178410       -2.1276915926       -0.0290851592
 C          2.5491071021       -1.2269467096       -0.0856320727
 C          1.7727075494       -2.3833269390       -0.1264931534
 N          1.0468644324       -3.2830764804       -0.1411525891
 C         -0.3043481005        0.3949299273        1.0752681976
 C         -1.6846947910        0.3900533841        1.0838747502
 C         -4.4750784150        1.1818514402       -0.1465612768
 C         -3.7492657314        2.3673020288       -0.3321149525
 C         -4.3944417133        3.5788791687       -0.4338010714
 C         -5.7776846026        3.6326147251       -0.3576815548
 C         -6.4976100969        2.4633911606       -0.1927466097
 C         -5.8761777248        1.2264895747       -0.0901039910
 H         -8.3016525473        0.7267887364       -1.2156100702
 H         -8.2879513380       -1.0252175056       -1.0527226428
 H         -7.0777168398       -0.2251609424       -2.0554391311
 H         -6.8580780913        0.1786170894        2.2249821911
 H         -8.1559023093       -0.7823699732        1.5173101510
 H         -8.1683111765        0.9706686253        1.3509892682
 H         -7.5440081952       -2.5778789868        0.3244947368
 H         -6.2364660500       -4.6286804193        0.4986851121
 H         -3.7570891574       -4.5185986367        0.4606310909
 H         -2.6391833125       -2.3627063994        0.2249599802
 H         -2.2414963424       -0.7091367998       -2.0678075131
 H          0.2276739583       -0.7175919298       -2.0732619281
 H          6.4734913346        1.3089661988        1.0230852907
 H          7.9424049116        3.3221979159        1.0321235514
 H          7.0348139470        5.4545651931        0.0714945503
 H          3.4961451614        3.7104190971       -0.9255339526
 H          3.4014024601       -3.9318072776       -0.0963191064
 H          5.0875758966       -5.7268591614       -0.0949998646
 H          7.5204741409       -5.1054401493       -0.0503102710
 H          6.6310194800       -1.1113448457       -0.0179780081
 H          0.2392732384        0.7054565220        1.9544657613
 H         -2.2292883473        0.6967692457        1.9641062400
 H         -2.6738718861        2.3297640309       -0.3965654873
 H         -3.8171311719        4.4793081052       -0.5739134304
 H         -6.2928904816        4.5773425257       -0.4335249689
 H         -7.5749916993        2.5219774459       -0.1486579924
