  92
       -151.00989930
 N         10.3554537147        1.9833903558        0.2016215236
 C          9.3525462775        1.4327267234        0.1453794583
 C          8.1293384726        0.7205018742        0.0706134759
 N          6.9944234711        1.3942660820        0.1563075486
 C          5.8505444875        0.7161768902        0.0861532378
 C          4.6085498197        1.4302879791        0.1626305888
 C          4.5354106468        2.8256770748        0.2961266015
 C          3.3056512061        3.4348767042        0.3335927534
 C          2.1430986006        2.6436951461        0.2276833786
 C          0.7914722468        3.1928581728        0.1979944646
 C          0.4575738166        4.4487749780        0.7064824474
 C         -0.8404691420        4.9071895528        0.6566381456
 C         -1.8520014770        4.1342735883        0.0761889245
 N         -3.1569185783        4.6034523033        0.0134234280
 C         -4.2428675358        3.7145187863        0.0090814120
 C         -5.3471088575        3.9677305869       -0.8034672827
 C         -6.4227674399        3.1010338443       -0.8048681713
 C         -6.4105818899        1.9684980501       -0.0078443559
 C         -5.3149810373        1.7101055280        0.7996000876
 C         -4.2398871655        2.5777529121        0.8167376364
 C         -3.4159062449        5.9806105094       -0.0794589271
 C         -2.6335995668        6.7976259410       -0.8937142614
 C         -2.9007521965        8.1503214204       -0.9806314798
 C         -3.9514934418        8.7048742829       -0.2682907831
 C         -4.7362318139        7.8948745620        0.5360311653
 C         -4.4723363265        6.5424124105        0.6351372411
 C         -1.5176678521        2.8754861983       -0.4362947541
 C         -0.2264498283        2.4133759986       -0.3627829193
 N          2.2151283634        1.3251387379        0.1146888287
 C          3.3918633545        0.7221293814        0.0868091283
 C          3.3962784045       -0.7245459696       -0.0368274994
 N          2.2234099576       -1.3356753712       -0.0542358822
 C          2.1599676241       -2.6535189480       -0.1776770265
 C          0.8112473022       -3.2100225822       -0.1479056893
 C         -0.2018773968       -2.4545476968        0.4520570209
 C         -1.4928551311       -2.9190367570        0.5135189426
 C         -1.8316139557       -4.1527300064       -0.0537257492
 N         -3.1401535558       -4.6161207873       -0.0136431456
 C         -4.2173539268       -3.7170987906        0.0161871087
 C         -5.3318359390       -3.9885619078        0.8084558675
 C         -6.3958635699       -3.1078916258        0.8368688247
 C         -6.3616798340       -1.9434046925        0.0881168501
 C         -5.2563531167       -1.6674030121       -0.7000606268
 C         -4.1933545253       -2.5486674869       -0.7449536682
 C         -3.4077815982       -5.9936326689        0.0251607697
 C         -2.6255297319       -6.8475692827        0.8007803832
 C         -2.8983798831       -8.2014467447        0.8328241529
 C         -3.9554832313       -8.7212733375        0.1041470231
 C         -4.7407043325       -7.8748452189       -0.6611437404
 C         -4.4707150610       -6.5207971279       -0.7060375523
 C         -0.8234765803       -4.9035815682       -0.6675419164
 C          0.4751934777       -4.4451144249       -0.7030364455
 C          3.3259429824       -3.4367568073       -0.2997040836
 C          4.5519493321       -2.8194180237       -0.2701726783
 C          4.6165908781       -1.4241496407       -0.1311942464
 C          5.8545197765       -0.7012135956       -0.0718152256
 N          7.0018819638       -1.3709795026       -0.1612530533
 C          8.1332040923       -0.6889280021       -0.0950401400
 C          9.3598617543       -1.3923829217       -0.1925515960
 N         10.3653888877       -1.9361980237       -0.2681992640
 H          5.4524021942        3.3925612711        0.3565126767
 H          3.2312243221        4.5077187984        0.4151921037
 H          1.2086823457        5.0626404074        1.1806265242
 H         -1.0865237479        5.8700428134        1.0796251766
 H         -5.3535823366        4.8453186318       -1.4332083739
 H         -7.2718377798        3.3078555745       -1.4394690913
 H         -7.2525127764        1.2935293556       -0.0145013197
 H         -5.2999326554        0.8294100895        1.4246642174
 H         -3.3928483578        2.3822946437        1.4576223630
 H         -1.8219961603        6.3633304947       -1.4590050328
 H         -2.2896749235        8.7737430262       -1.6164037238
 H         -4.1584906390        9.7616333898       -0.3410129406
 H         -5.5555301015        8.3200351274        1.0965366092
 H         -5.0802100456        5.9113331889        1.2668753093
 H         -2.2819240914        2.2702550001       -0.9005225769
 H          0.0328456684        1.4411251945       -0.7509746957
 H          0.0598249867       -1.4990684023        0.8782767006
 H         -2.2542326394       -2.3339089470        1.0072371349
 H         -5.3554424639       -4.8908353990        1.4018200886
 H         -7.2530204277       -3.3290897034        1.4555741456
 H         -7.1935797263       -1.2567574620        0.1170445155
 H         -5.2243756743       -0.7616352221       -1.2875898282
 H         -3.3384898207       -2.3386474239       -1.3706605750
 H         -1.8088908709       -6.4411532245        1.3792695166
 H         -2.2864367918       -8.8534096369        1.4383635035
 H         -4.1670106369       -9.7791784905        0.1339602380
 H         -5.5654275062       -8.2724890904       -1.2336644116
 H         -5.0790370493       -5.8616740242       -1.3079096290
 H         -1.0728732509       -5.8472359620       -1.1299468477
 H          1.2243541863       -5.0381875986       -1.2060247481
 H          3.2564442699       -4.5095108514       -0.3874393685
 H          5.4722805030       -3.3793890013       -0.3430180584
