  55
  -88.6482740986000       0.307766470385780      !
 N         -3.7518384913       -5.2732628181        0.0008801113
 C         -3.6253164925       -4.1252832437       -0.0054803061
 C         -3.4704653851       -2.7423200299       -0.0091122030
 C         -4.6124309951       -1.8952635936       -0.0266663962
 C         -4.4885181043       -0.5389304922       -0.0276022475
 C         -3.1926754048        0.0415120706       -0.0115721857
 C         -2.0456030480       -0.8254842734        0.0011316498
 C         -2.1660342886       -2.1751230174        0.0037421585
 C         -0.7682525872       -0.0028112319        0.0083027485
 C         -1.3314231778        1.4148234140        0.0140263841
 C         -0.6451312449        2.5823554374        0.0270935769
 C         -1.3770965146        3.8019142492        0.0223624635
 C         -0.6940151057        5.0138864439        0.0350915610
 N         -0.1150911060        6.0134010159        0.0491698523
 C         -2.7988851935        3.7747514341        0.0026868356
 C         -3.4847462803        2.5985318635       -0.0097049143
 C         -2.7674149584        1.3727621647       -0.0037831651
 C          0.0350941378       -0.2335219293        1.2560388409
 C         -0.6056748790       -0.2251122353        2.4865730780
 C          0.1018842909       -0.3888677601        3.6622742338
 C          1.4790804482       -0.5582275156        3.6151744132
 C          2.1365052547       -0.5687612768        2.4048613418
 C          1.4260911483       -0.4097222883        1.2079451514
 N          2.0893283573       -0.4339528305       -0.0022165898
 C          3.5103476127       -0.5580711655       -0.0066403107
 C          4.0972598677       -1.8162946304       -0.0452206591
 C          5.4764616928       -1.9262465626       -0.0516255238
 C          6.2653494348       -0.7878829746       -0.0196034371
 C          5.6762076000        0.4649699438        0.0194350332
 C          4.2974835363        0.5849035928        0.0260845833
 C          1.4218146258       -0.3821020773       -1.2090607412
 C          2.1285672233       -0.5050789142       -2.4124260066
 C          1.4662797915       -0.4684771065       -3.6195360611
 C          0.0876241202       -0.3088319124       -3.6571094480
 C         -0.6159745239       -0.1774440426       -2.4750901840
 C          0.0299773516       -0.2106167283       -1.2476473094
 H         -5.5880048962       -2.3594628510       -0.0388464441
 H         -5.3593839355        0.0985443264       -0.0401933916
 H         -1.3042659443       -2.8274082633        0.0129611857
 H          0.4353265248        2.6144924387        0.0406958741
 H         -3.3239472951        4.7190237592       -0.0023831029
 H         -4.5638929213        2.5849102164       -0.0248190883
 H         -1.6759941639       -0.0852962653        2.5146865969
 H         -0.4138161060       -0.3815226568        4.6095144443
 H          2.0417809606       -0.6833852681        4.5274495077
 H          3.2067746111       -0.7026211589        2.3760060479
 H          3.4710910398       -2.6957215837       -0.0704634516
 H          5.9344862435       -2.9030436971       -0.0820873670
 H          7.3407658455       -0.8776247482       -0.0252049968
 H          6.2894500538        1.3526090413        0.0447249643
 H          3.8271123112        1.5562864245        0.0567501410
 H          3.2000486232       -0.6300404097       -2.3915551413
 H          2.0264569975       -0.5648264961       -4.5368438570
 H         -0.4318389938       -0.2817177876       -4.6019296913
 H         -1.6870211089       -0.0423882031       -2.4962669629
  55
  -88.6476838661000       0.164804561413608      !
 N         -2.2581002243       -5.3266708653       -0.0217026127
 C         -2.4307479712       -4.1854795661       -0.0121400226
 C         -2.6181301216       -2.8072955808       -0.0087078672
 C         -3.9279014064       -2.2529720661       -0.0169148960
 C         -4.1264707387       -0.9060628157       -0.0138965814
 C         -3.0051419088       -0.0345724667       -0.0039957128
 C         -1.6887374131       -0.6083153934        0.0027392206
 C         -1.4859848734       -1.9472124826        0.0014019543
 C         -0.6385855083        0.5011586101        0.0068138880
 C         -1.5164344208        1.7371529976        0.0096747644
 C         -1.1275894874        3.0358739383        0.0186371183
 C         -2.1280081628        4.0466758301        0.0197228788
 C         -1.7566590964        5.3880733814        0.0265777208
 N         -1.4439859282        6.4990789997        0.0521308400
 C         -3.5028686091        3.6848898766        0.0109956981
 C         -3.8916843852        2.3793804057        0.0018827839
 C         -2.9041412008        1.3594901908        0.0014887899
 C          0.1890588511        0.3728394590        1.2539941502
 C         -0.3439570431        0.7480844151        2.4779650185
 C          0.3563230608        0.5485901567        3.6529980464
 C          1.6046129765       -0.0571167453        3.6127524912
 C          2.1537455755       -0.4383644215        2.4080639180
 C          1.4630477623       -0.2156725135        1.2104909086
 N          2.0274289260       -0.5683259678        0.0004826997
 C          3.2687838776       -1.2694238512       -0.0098233553
 C          3.2688983503       -2.6485766653       -0.1674251186
 C          4.4703479192       -3.3351999549       -0.1776938171
 C          5.6645978363       -2.6495653728       -0.0316468749
 C          5.6610919430       -1.2728776795        0.1237371946
 C          4.4650862467       -0.5778758726        0.1344456684
 C          1.4612793213       -0.2030168564       -1.2048630195
 C          2.1645311405       -0.3908233715       -2.4011135831
 C          1.6127854743       -0.0058096456       -3.6033476855
 C          0.3528713373        0.5756560693       -3.6410643006
 C         -0.3511462035        0.7581134890       -2.4655508726
 C          0.1843997148        0.3781467098       -1.2440759904
 H         -4.7666036244       -2.9339737855       -0.0261519813
 H         -5.1231595309       -0.4919958048       -0.0196907393
 H         -0.4954280451       -2.3799517929        0.0068955712
 H         -0.0851964319        3.3210264613        0.0245557721
 H         -4.2364038526        4.4781804849        0.0105131158
 H         -4.9370647918        2.1111398962       -0.0054412510
 H         -1.3250811819        1.1979771511        2.5037257489
 H         -0.0712833281        0.8525161837        4.5953815138
 H          2.1524333524       -0.2321479249        4.5258398123
 H          3.1234663306       -0.9106228216        2.3863400326
 H          2.3328769388       -3.1746663722       -0.2810038567
 H          4.4707912797       -4.4073283248       -0.2998356506
 H          6.5997286537       -3.1878718307       -0.0408040814
 H          6.5913421855       -0.7369665570        0.2348110656
 H          4.4488700221        0.4954910500        0.2528656168
 H          3.1473748796       -0.8354292225       -2.3783067055
 H          2.1678161356       -0.1573794291       -4.5162383820
 H         -0.0784471737        0.8793102566       -4.5818842132
 H         -1.3364038231        1.1989411703       -2.4889293706
  55
  -88.6476298501000       0.155648590772335      !
 N         -3.9191852760       -5.2453509912        0.0154001171
 C         -3.7615593757       -4.1012582759        0.0106109480
 C         -3.5648238558       -2.7233996394        0.0047398140
 C         -4.6800520307       -1.8414949075       -0.0083966397
 C         -4.5140945156       -0.4894984520       -0.0129765409
 C         -3.2008693711        0.0502727394       -0.0049149027
 C         -2.0806520066       -0.8515717071        0.0065178991
 C         -2.2433309133       -2.1970648753        0.0116848367
 C         -0.7797486918       -0.0691851634        0.0071689619
 C         -1.2987665488        1.3663119409        0.0066770730
 C         -0.5764453627        2.5119754894        0.0115124560
 C         -1.2700661468        3.7535105525        0.0037132364
 C         -0.5496717011        4.9435282147        0.0112709997
 N          0.0603583413        5.9243406188        0.0172639053
 C         -2.6921686232        3.7698934810       -0.0119029634
 C         -3.4140443738        2.6153801421       -0.0164104759
 C         -2.7350651038        1.3679663473       -0.0057359264
 C          0.0236537480       -0.3059655104        1.2535890425
 C         -0.6175956475       -0.3381074323        2.4833174235
 C          0.0947980542       -0.4982831625        3.6567578635
 C          1.4762416164       -0.6265988805        3.6077310709
 C          2.1340125082       -0.5970569023        2.3977587951
 C          1.4199314698       -0.4339062199        1.2036898606
 N          2.0840708082       -0.4169709340       -0.0068601888
 C          3.5090287115       -0.4640210519       -0.0062731537
 C          4.1665564108       -1.6749832022       -0.1827549534
 C          5.5496874746       -1.7080393233       -0.1780528978
 C          6.2731065085       -0.5404578994        0.0031100563
 C          5.6140328676        0.6648536457        0.1799532189
 C          4.2308395765        0.7079523155        0.1757547467
 C          1.4129299485       -0.4052088671       -1.2132861898
 C          2.1201233700       -0.5022336464       -2.4185795951
 C          1.4517122399       -0.5144513602       -3.6229623590
 C          0.0665174463       -0.4279090460       -3.6560658811
 C         -0.6376094865       -0.3096794971       -2.4728556575
 C          0.0144046620       -0.2932903878       -1.2484763047
 H         -5.6697185600       -2.2749906629       -0.0145642631
 H         -5.3647801420        0.1747388308       -0.0229918474
 H         -1.4023635064       -2.8758724154        0.0210922642
 H          0.5045645457        2.5106085435        0.0204020615
 H         -3.1879537466        4.7298628164       -0.0203431735
 H         -4.4931427219        2.6350987978       -0.0287800942
 H         -1.6917272715       -0.2324334955        2.5132545163
 H         -0.4207678194       -0.5213122092        4.6038781309
 H          2.0422512598       -0.7520079122        4.5179592987
 H          3.2071620308       -0.7047468495        2.3675258441
 H          3.5911210266       -2.5782680270       -0.3215981549
 H          6.0620853691       -2.6481713896       -0.3146505521
 H          7.3518490693       -0.5705534184        0.0070090401
 H          6.1759090645        1.5754049496        0.3209757848
 H          3.7068570361        1.6420691420        0.3133859068
 H          3.1969569787       -0.5663101549       -2.4025161512
 H          2.0124628233       -0.5905428661       -4.5418262960
 H         -0.4577549090       -0.4412235706       -4.5985385695
 H         -1.7135836486       -0.2217999989       -2.4912398546
  55
  -88.6475443771000       0.142188516102937      !
 N         -2.4732265929       -5.3365474305       -0.0060664628
 C         -2.6074612550       -4.1893415483       -0.0064616087
 C         -2.7476038627       -2.8052801403       -0.0065828520
 C         -4.0383782521       -2.2082020200       -0.0183509713
 C         -4.1928909094       -0.8553814634       -0.0196802417
 C         -3.0433095946       -0.0215029962       -0.0095750887
 C         -1.7461195165       -0.6380083297        0.0006632399
 C         -1.5873086380       -1.9830060355        0.0033070998
 C         -0.6601597683        0.4353636511        0.0054167738
 C         -1.4977943308        1.7006730461        0.0083479075
 C         -1.0662579325        2.9855317768        0.0221473759
 C         -2.0330568563        4.0287137909        0.0229241466
 C         -1.6204774472        5.3577346976        0.0422051977
 N         -1.2742374530        6.4592712570        0.0599916355
 C         -3.4191263881        3.7121691148        0.0057750617
 C         -3.8506304430        2.4202394848       -0.0078667587
 C         -2.8969943592        1.3684164957       -0.0047859447
 C          0.1618890887        0.2905715885        1.2542511914
 C         -0.3942152312        0.6197423444        2.4815851943
 C          0.3028315625        0.4206263340        3.6583402794
 C          1.5744311847       -0.1347414686        3.6160164974
 C          2.1467836092       -0.4690799639        2.4084013541
 C          1.4562930251       -0.2503571556        1.2095748709
 N          2.0429345977       -0.5619639651       -0.0006693438
 C          3.3276356632       -1.1808709428       -0.0092988991
 C          3.4201359398       -2.5596159185       -0.1436563462
 C          4.6657966130       -3.1626815110       -0.1553615961
 C          5.8118799846       -2.3944944633       -0.0333730443
 C          5.7157605529       -1.0186513705        0.1004941640
 C          4.4749991498       -0.4068181188        0.1124598299
 C          1.4560778275       -0.2346854848       -1.2067420537
 C          2.1575428700       -0.4168651806       -2.4053170839
 C          1.5836836357       -0.0748995936       -3.6100314000
 C          0.3020765064        0.4573295942       -3.6488183513
 C         -0.3989283118        0.6358627963       -2.4711260940
 C          0.1588559969        0.2987425548       -1.2466605786
 H         -4.8990715908       -2.8612829109       -0.0262767134
 H         -5.1754051845       -0.4087249202       -0.0281637659
 H         -0.6112765534       -2.4476060138        0.0129416271
 H         -0.0151585380        3.2365443748        0.0325780045
 H         -4.1261540576        4.5291812695        0.0044276416
 H         -4.9041880582        2.1864313457       -0.0199129228
 H         -1.3910090788        1.0338935974        2.5075571549
 H         -0.1440963303        0.6863812286        4.6032880704
 H          2.1213881322       -0.3083636274        4.5299245349
 H          3.1345119924       -0.9024609917        2.3845488707
 H          2.5203967088       -3.1494935777       -0.2382915797
 H          4.7388454778       -4.2343705187       -0.2597641277
 H          6.7815859784       -2.8680119067       -0.0427390138
 H          6.6082931950       -0.4186066477        0.1943244760
 H          4.3863072681        0.6646830290        0.2152177773
 H          3.1563465536       -0.8244297688       -2.3825279839
 H          2.1379061178       -0.2223787478       -4.5241902836
 H         -0.1473910986        0.7261661704       -4.5917150961
 H         -1.3997676156        1.0402457803       -2.4942874297
  55
  -88.6471744425000       9.612898370478719E-002 !
 N         -2.0810837259       -5.3155023603       -0.0874454026
 C         -2.2911140444       -4.1796287222       -0.0662791078
 C         -2.5162887174       -2.8070370025       -0.0432075941
 C         -3.8394494944       -2.2858592869       -0.0239748625
 C         -4.0713503010       -0.9443203949        0.0001864893
 C         -2.9723408456       -0.0447556347        0.0066571705
 C         -1.6421664199       -0.5851716751       -0.0110002619
 C         -1.4064224920       -1.9185099835       -0.0370822947
 C         -0.6203145508        0.5511007421        0.0019091266
 C         -1.5282818574        1.7639275533        0.0194614210
 C         -1.1730147188        3.0725746166        0.0318675563
 C         -2.1988425771        4.0571628919        0.0515139301
 C         -1.8635554807        5.4081573367        0.0649599716
 N         -1.5823292449        6.5281016800        0.0773905270
 C         -3.5640590822        3.6603302053        0.0581227259
 C         -3.9193454372        2.3452792841        0.0450945736
 C         -2.9061092013        1.3512607063        0.0246949174
 C          0.2109881147        0.4255473460        1.2471724612
 C         -0.3014923212        0.8236272553        2.4724174909
 C          0.4134880464        0.6325614170        3.6403069453
 C          1.6594574066        0.0227032915        3.5911594699
 C          2.1874878959       -0.3823597371        2.3846883778
 C          1.4739669691       -0.1846644343        1.1964787535
 N          2.0175743095       -0.5668188673       -0.0143813737
 C          3.2178731906       -1.3357082647       -0.0125571418
 C          3.1388293287       -2.7121144668        0.1505306129
 C          4.2980946092       -3.4679317901        0.1574832836
 C          5.5296418338       -2.8536465460        0.0033671778
 C          5.6054322074       -1.4795280190       -0.1574321929
 C          4.4518756557       -0.7157315104       -0.1654669299
 C          1.4651858151       -0.1741328169       -1.2176938664
 C          2.1500345362       -0.3902331996       -2.4194805399
 C          1.6130508654        0.0346948112       -3.6151699171
 C          0.3835681987        0.6784500724       -3.6415029113
 C         -0.3131714053        0.8695172629       -2.4627506119
 C          0.2072769126        0.4498458644       -1.2481235983
 H         -4.6609657121       -2.9875562708       -0.0297918610
 H         -5.0780847606       -0.5554417361        0.0132966897
 H         -0.4057808832       -2.3269149245       -0.0549079016
 H         -0.1381890316        3.3841583417        0.0280896637
 H         -4.3175299006        4.4345613905        0.0739742833
 H         -4.9574970118        2.0502691699        0.0498271264
 H         -1.2769115632        1.2851839844        2.5058182613
 H          0.0007365809        0.9515508461        4.5843936913
 H          2.2224861362       -0.1350612341        4.4981372656
 H          3.1599958036       -0.8487237208        2.3521790446
 H          2.1748612400       -3.1833487486        0.2717632801
 H          4.2360185471       -4.5379024758        0.2831061558
 H          6.4318905946       -3.4456926721        0.0093576952
 H          6.5648650180       -0.9992978315       -0.2756609096
 H          4.4980019793        0.3564789082       -0.2874300755
 H          3.1050604245       -0.8918671592       -2.4083306772
 H          2.1552166469       -0.1368949274       -4.5323014658
 H         -0.0343715978        1.0157278316       -4.5768926805
 H         -1.2821036842        1.3455000345       -2.4790497950
  55
  -88.6470624472000       8.538564720855119E-002 !
 N         -1.9804281194       -5.3066576842       -0.0757666101
 C         -2.2121701922       -4.1750495472       -0.0627279480
 C         -2.4589156708       -2.8062298279       -0.0420002522
 C         -3.7891191317       -2.3034313441       -0.0244735217
 C         -4.0393576368       -0.9650824409       -0.0027167446
 C         -2.9530184649       -0.0502247199        0.0036835439
 C         -1.6156195076       -0.5721236107       -0.0124516053
 C         -1.3617722667       -1.9021300263       -0.0364517477
 C         -0.6096244993        0.5786164197        0.0004967015
 C         -1.5340062203        1.7784615824        0.0176526147
 C         -1.1976033132        3.0922908553        0.0316497422
 C         -2.2373343740        4.0620779487        0.0518120384
 C         -1.9220290047        5.4179262716        0.0667902871
 N         -1.6570614227        6.5417143220        0.0837491831
 C         -3.5968132966        3.6459908199        0.0579944232
 C         -3.9332784308        2.3259376901        0.0435103539
 C         -2.9059859020        1.3466078947        0.0223170780
 C          0.2231021891        0.4595647145        1.2455786224
 C         -0.2802706210        0.8733066825        2.4692419657
 C          0.4360342872        0.6808091399        3.6362184588
 C          1.6730301139        0.0529116458        3.5880160960
 C          2.1919887943       -0.3679044741        2.3829463654
 C          1.4778842090       -0.1677217989        1.1957198450
 N          2.0127196822       -0.5643336907       -0.0143801584
 C          3.1880415168       -1.3708095153       -0.0118210014
 C          3.0632937546       -2.7441216508        0.1495398693
 C          4.1963978823       -3.5385175888        0.1544044634
 C          5.4476728241       -2.9656515034       -0.0000516323
 C          5.5694005470       -1.5944470484       -0.1571473496
 C          4.4422314090       -0.7922889440       -0.1632464528
 C          1.4707352748       -0.1566699407       -1.2176639333
 C          2.1573944412       -0.3731648549       -2.4181490882
 C          1.6309675564        0.0685269145       -3.6126506546
 C          0.4106152043        0.7293943023       -3.6386984626
 C         -0.2887809915        0.9203276114       -2.4613214850
 C          0.2210932403        0.4841837269       -1.2481435216
 H         -4.6008926973       -3.0163662819       -0.0290988592
 H         -5.0513656487       -0.5901317109        0.0110573264
 H         -0.3558731376       -2.2970686331       -0.0546259787
 H         -0.1673241265        3.4186804477        0.0284795294
 H         -4.3612385304        4.4094397511        0.0733033953
 H         -4.9671229604        2.0160600792        0.0463445218
 H         -1.2492435171        1.3481999494        2.5025212381
 H          0.0308013174        1.0125878377        4.5791635787
 H          2.2365536098       -0.1057752094        4.4945209325
 H          3.1572388109       -0.8491271143        2.3505265233
 H          2.0843795100       -3.1842585248        0.2685860462
 H          4.0978520109       -4.6063462379        0.2745203168
 H          6.3292516115       -3.5879688112        0.0007157804
 H          6.5440989236       -1.1467693854       -0.2774952242
 H          4.5243646095        0.2776141731       -0.2857884958
 H          3.1056848755       -0.8874503208       -2.4070347626
 H          2.1741891471       -0.1036443479       -4.5290492182
 H          0.0009166371        1.0792524487       -4.5731996441
 H         -1.2516013891        1.4085144555       -2.4781695928
  55
  -88.6459453360000       2.618159575910066E-002 !
 N         -4.5781527607       -5.0519134750       -0.0361699272
 C         -4.2728509796       -3.9384344075       -0.0517748999
 C         -3.8982914587       -2.5976040022       -0.0559063798
 C         -4.8917452378       -1.5822283347       -0.1147725754
 C         -4.5550668183       -0.2623307954       -0.1181824027
 C         -3.1855063412        0.1059684891       -0.0627892372
 C         -2.1876446766       -0.9289651665       -0.0129959910
 C         -2.5220702685       -2.2436813915       -0.0066179048
 C         -0.8032754151       -0.3164245423        0.0124930883
 C         -1.1377956576        1.1755301871        0.0304181820
 C         -0.2841126565        2.2236199577        0.1112090511
 C         -0.8170355490        3.5414732519        0.1104068534
 C          0.0529029817        4.6235743804        0.1956921201
 N          0.8002695193        5.5028599069        0.2534222492
 C         -2.2231963015        3.7350224794        0.0246965865
 C         -3.0787192451        2.6780800485       -0.0465367887
 C         -2.5604391446        1.3557535716       -0.0373320283
 C         -0.0148533348       -0.6244205616        1.2538732983
 C         -0.6609114297       -0.8201717387        2.4643714554
 C          0.0540800523       -0.9508327888        3.6406600889
 C          1.4379074025       -0.8490316683        3.6162642599
 C          2.1015062711       -0.6560830212        2.4237037415
 C          1.3896640199       -0.5687364035        1.2221035935
 N          2.0468972738       -0.4232228105        0.0139372175
 C          3.4294254775       -0.0882660858       -0.0201572581
 C          4.4055426418       -1.0213074837        0.3079669224
 C          5.7402283598       -0.6579538178        0.2653151030
 C          6.1029838902        0.6261897354       -0.1066740154
 C          5.1290249059        1.5508810621       -0.4449421835
 C          3.7928462530        1.1968469915       -0.4049371277
 C          1.3864273943       -0.5909403210       -1.1896565009
 C          2.1137160391       -0.7809912252       -2.3700166254
 C          1.4598413153       -0.9740028900       -3.5677385186
 C          0.0727472022       -0.9830772970       -3.6134082070
 C         -0.6531578531       -0.7972139731       -2.4509746288
 C         -0.0157030729       -0.6072250822       -1.2348289805
 H         -5.9274590432       -1.8871321412       -0.1559537088
 H         -5.3133462221        0.5044079696       -0.1615961481
 H         -1.7746073821       -3.0232248931        0.0336075234
 H          0.7861116214        2.0933533304        0.1835699662
 H         -2.5966545045        4.7487944764        0.0215747367
 H         -4.1454829102        2.8311627061       -0.1052074608
 H         -1.7397631147       -0.8586509061        2.4801644733
 H         -0.4640199536       -1.1094361980        4.5733311534
 H          2.0029077743       -0.9190499933        4.5330195256
 H          3.1764368222       -0.5691730795        2.4189618721
 H          4.1154770827       -2.0246708244        0.5833319585
 H          6.4986676845       -1.3825822588        0.5199993168
 H          7.1449737784        0.9051415507       -0.1365922440
 H          5.4055692843        2.5520402264       -0.7372728964
 H          3.0298406437        1.9138554505       -0.6696530201
 H          3.1924042050       -0.7871990850       -2.3368979336
 H          2.0335634263       -1.1223885313       -4.4695711464
 H         -0.4396285759       -1.1332158426       -4.5507051600
 H         -1.7321781273       -0.7957586496       -2.4833715615
  55
  -88.6457763979000       2.189563465290130E-002 !
 N         -4.6449187151       -5.0303508484        0.0750612317
 C         -4.3209949697       -3.9221745452        0.0554353272
 C         -3.9306929263       -2.5858912916        0.0350085538
 C         -4.9134694750       -1.5584602949        0.0341566459
 C         -4.5607853974       -0.2428366770        0.0218987552
 C         -3.1856932079        0.1081664292        0.0100509146
 C         -2.1986508445       -0.9382543311        0.0088273329
 C         -2.5494900506       -2.2490032106        0.0194077362
 C         -0.8074912294       -0.3421347493       -0.0001825127
 C         -1.1243714852        1.1544667549       -0.0105006338
 C         -0.2574342417        2.1942102945       -0.0367129474
 C         -0.7743874561        3.5181588514       -0.0425605546
 C          0.1139006714        4.5884527587       -0.0579291297
 N          0.8780502529        5.4549176106       -0.0499368631
 C         -2.1807949837        3.7270626451       -0.0319026870
 C         -3.0497788522        2.6788437685       -0.0135608401
 C         -2.5462902276        1.3507787415       -0.0019760676
 C         -0.0123354975       -0.6556661687        1.2358708723
 C         -0.6381495778       -0.9011207107        2.4475901615
 C          0.0988810364       -1.0999733011        3.6011599105
 C          1.4845734050       -1.0424357794        3.5518701088
 C          2.1272533069       -0.7958720166        2.3578354072
 C          1.3892286004       -0.6005409330        1.1853673577
 N          2.0381859793       -0.3906633066       -0.0180534952
 C          3.4164613638       -0.0362679265        0.0082788672
 C          4.4011135296       -0.9583705274       -0.3263170336
 C          5.7314836617       -0.5784281147       -0.3007920983
 C          6.0822464182        0.7122821701        0.0600945009
 C          5.1005504242        1.6255516966        0.4064034958
 C          3.7683699079        1.2544099262        0.3843399107
 C          1.3797716711       -0.5467866309       -1.2243558452
 C          2.0875187560       -0.6131126467       -2.4294685845
 C          1.4231949327       -0.8253076765       -3.6184147158
 C          0.0429449568       -0.9677725877       -3.6349629328
 C         -0.6699182265       -0.8538018198       -2.4554687654
 C         -0.0233656006       -0.6374258252       -1.2490542053
 H         -5.9536692289       -1.8504257265        0.0447813414
 H         -5.3103451231        0.5336229984        0.0218038481
 H         -1.8109105409       -3.0380480494        0.0186546595
 H          0.8132283575        2.0537262154       -0.0584733667
 H         -2.5430752371        4.7448403345       -0.0423580780
 H         -4.1164845152        2.8433847521       -0.0106972951
 H         -1.7165853559       -0.9328370946        2.4839193727
 H         -0.4041606552       -1.2957299764        4.5350594053
 H          2.0662288160       -1.1959061925        4.4477517815
 H          3.2053939061       -0.7654572024        2.3207164591
 H          4.1200608040       -1.9656676951       -0.5967075123
 H          6.4956820359       -1.2942923103       -0.5628674508
 H          7.1207882730        1.0050178447        0.0752424062
 H          5.3672287152        2.6311793529        0.6924904286
 H          3.0020237271        1.9642584251        0.6581510288
 H          3.1596313769       -0.4964978738       -2.4303765996
 H          1.9849425704       -0.8790116618       -4.5382442471
 H         -0.4753186139       -1.1436030354       -4.5644258894
 H         -1.7472699498       -0.9219357290       -2.4668014790
