  55
        -88.99588877
 N         -3.7518384913       -5.2732628181        0.0008801113
 C         -3.6253164925       -4.1252832437       -0.0054803061
 C         -3.4704653851       -2.7423200299       -0.0091122030
 C         -4.6124309951       -1.8952635936       -0.0266663962
 C         -4.4885181043       -0.5389304922       -0.0276022475
 C         -3.1926754048        0.0415120706       -0.0115721857
 C         -2.0456030480       -0.8254842734        0.0011316498
 C         -2.1660342886       -2.1751230174        0.0037421585
 C         -0.7682525872       -0.0028112319        0.0083027485
 C         -1.3314231778        1.4148234140        0.0140263841
 C         -0.6451312449        2.5823554374        0.0270935769
 C         -1.3770965146        3.8019142492        0.0223624635
 C         -0.6940151057        5.0138864439        0.0350915610
 N         -0.1150911060        6.0134010159        0.0491698523
 C         -2.7988851935        3.7747514341        0.0026868356
 C         -3.4847462803        2.5985318635       -0.0097049143
 C         -2.7674149584        1.3727621647       -0.0037831651
 C          0.0350941378       -0.2335219293        1.2560388409
 C         -0.6056748790       -0.2251122353        2.4865730780
 C          0.1018842909       -0.3888677601        3.6622742338
 C          1.4790804482       -0.5582275156        3.6151744132
 C          2.1365052547       -0.5687612768        2.4048613418
 C          1.4260911483       -0.4097222883        1.2079451514
 N          2.0893283573       -0.4339528305       -0.0022165898
 C          3.5103476127       -0.5580711655       -0.0066403107
 C          4.0972598677       -1.8162946304       -0.0452206591
 C          5.4764616928       -1.9262465626       -0.0516255238
 C          6.2653494348       -0.7878829746       -0.0196034371
 C          5.6762076000        0.4649699438        0.0194350332
 C          4.2974835363        0.5849035928        0.0260845833
 C          1.4218146258       -0.3821020773       -1.2090607412
 C          2.1285672233       -0.5050789142       -2.4124260066
 C          1.4662797915       -0.4684771065       -3.6195360611
 C          0.0876241202       -0.3088319124       -3.6571094480
 C         -0.6159745239       -0.1774440426       -2.4750901840
 C          0.0299773516       -0.2106167283       -1.2476473094
 H         -5.5880048962       -2.3594628510       -0.0388464441
 H         -5.3593839355        0.0985443264       -0.0401933916
 H         -1.3042659443       -2.8274082633        0.0129611857
 H          0.4353265248        2.6144924387        0.0406958741
 H         -3.3239472951        4.7190237592       -0.0023831029
 H         -4.5638929213        2.5849102164       -0.0248190883
 H         -1.6759941639       -0.0852962653        2.5146865969
 H         -0.4138161060       -0.3815226568        4.6095144443
 H          2.0417809606       -0.6833852681        4.5274495077
 H          3.2067746111       -0.7026211589        2.3760060479
 H          3.4710910398       -2.6957215837       -0.0704634516
 H          5.9344862435       -2.9030436971       -0.0820873670
 H          7.3407658455       -0.8776247482       -0.0252049968
 H          6.2894500538        1.3526090413        0.0447249643
 H          3.8271123112        1.5562864245        0.0567501410
 H          3.2000486232       -0.6300404097       -2.3915551413
 H          2.0264569975       -0.5648264961       -4.5368438570
 H         -0.4318389938       -0.2817177876       -4.6019296913
 H         -1.6870211089       -0.0423882031       -2.4962669629
