  70
       -108.21844140
 C          9.6188489734       -2.9453562469        1.0315076277
 C          9.4876501390       -2.1020334887       -0.0588994434
 C          8.3028918532       -1.4235783064       -0.2747337305
 C          7.2254856683       -1.5803434516        0.5943331730
 C          5.9672488105       -0.8544967421        0.3643512792
 C          4.7375893036       -1.4995120701        0.5538562575
 C          3.5330193182       -0.8592417133        0.3459252310
 C          3.5618953016        0.4658839178       -0.0648666064
 C          4.7913578526        1.1421217940       -0.2361375159
 C          5.9896676414        0.4771219421       -0.0296974309
 C          4.4669044741        2.4925765590       -0.6034912327
 C          5.2331374404        3.6072202765       -0.9159067156
 C          4.5876295159        4.7783263336       -1.2592915655
 C          3.1969870554        4.8410579050       -1.3093701470
 C          2.4134258904        3.7449600741       -1.0028971047
 C          3.0559210993        2.5729492142       -0.6307361998
 N          2.5211749242        1.3414102136       -0.3042247436
 C          1.1577988430        1.0415436183       -0.2180529230
 C          0.6377446558       -0.0804459275       -0.8608004535
 C         -0.7081193693       -0.3636856553       -0.7730836006
 C         -1.5706785659        0.4648778396       -0.0544337089
 C         -2.9981065507        0.1290210438        0.0004294062
 C         -3.9873904471        1.0617331620        0.3108774886
 C         -5.3069794635        0.6106012246        0.3309583712
 C         -6.4416561069        1.4845313255        0.6567954306
 C         -6.3996235427        2.8596719726        0.4400442093
 C         -7.4886489734        3.6490060601        0.7604117107
 C         -8.6290971841        3.0791903780        1.3019963465
 C         -8.6818696957        1.7107789554        1.5136060421
 C         -7.5983667734        0.9179241370        1.1896492788
 N         -5.5975120146       -0.6605473925        0.0675601096
 C         -4.5973223534       -1.4795675112       -0.2365679359
 C         -4.9349510183       -2.8714913066       -0.5475898519
 C         -3.9270496402       -3.8097238770       -0.7588433325
 C         -4.2500967958       -5.1197355283       -1.0551634671
 C         -5.5782781520       -5.5061761369       -1.1427289305
 C         -6.5853089946       -4.5773090351       -0.9322161409
 C         -6.2683266940       -3.2656982637       -0.6363233118
 N         -3.3166472113       -1.1327028928       -0.2818209583
 C         -1.0417298180        1.5798550363        0.5933325762
 C          0.3060973319        1.8642144055        0.5159982266
 C          7.3686353615       -2.4326769213        1.6867566922
 C          8.5555837074       -3.1070490113        1.9037910379
 H         10.5453784338       -3.4736018389        1.2010274213
 H         10.3123436133       -1.9744500749       -0.7452406461
 H          8.2009010753       -0.7797339884       -1.1363283786
 H          4.7353358102       -2.5360119568        0.8568320357
 H          2.5994229346       -1.3755215233        0.5102246382
 H          6.9280448079        0.9978780095       -0.1456859057
 H          6.3110577368        3.5531699950       -0.8933828947
 H          5.1644919719        5.6577483419       -1.5031235470
 H          2.7202730183        5.7657689770       -1.5989771890
 H          1.3370767581        3.7988286502       -1.0643288700
 H          1.2931763632       -0.7121660626       -1.4414927556
 H         -1.1225763160       -1.2257980108       -1.2715783143
 H         -3.7461255620        2.0877196445        0.5307983669
 H         -5.5254730622        3.3145285576       -0.0023230920
 H         -7.4490214513        4.7141431145        0.5842612081
 H         -9.4760220359        3.7004035839        1.5536802366
 H         -9.5717093663        1.2627474679        1.9308943904
 H         -7.6233717562       -0.1491736381        1.3480318754
 H         -2.8984322192       -3.4936652093       -0.6826838705
 H         -3.4660962094       -5.8449580878       -1.2183359902
 H         -5.8285288707       -6.5313643704       -1.3739617092
 H         -7.6202304780       -4.8794943929       -1.0011574352
 H         -7.0395268457       -2.5288465827       -0.4744223884
 H         -1.6766255864        2.2185610753        1.1885999260
 H          0.7135585388        2.7153914498        1.0409550699
 H          6.5493707055       -2.5497351945        2.3811671432
 H          8.6535980966       -3.7595162756        2.7594810519
