  58
  -86.1951907025000       0.534940924071737      !
 C         -1.2940786144        2.6857520264       -1.5077756803
 C         -1.6082599720        2.0874490442       -0.1177430404
 C         -1.1125145150        2.9822034778        1.0481619280
 C         -3.1244357414        2.0342423193       -0.0365562102
 C         -3.8396781470        3.2242046469       -0.0264532708
 C         -5.2212847443        3.2441575609        0.0202900943
 C         -5.9155844698        2.0480785176        0.0611261330
 C         -5.2278837229        0.8525866093        0.0557059990
 C         -3.8315803456        0.8333994380        0.0029261396
 N         -3.1495594245       -0.3713329429       -0.0031591601
 C         -3.9113296784       -1.5741068939        0.0422837242
 C         -4.3486535279       -2.1608262826       -1.1383301078
 C         -5.1034189856       -3.3196636475       -1.0916637808
 C         -5.4223993317       -3.8930667137        0.1281329694
 C         -4.9866584173       -3.3071204402        1.3053460365
 C         -4.2325862675       -2.1478685581        1.2663227942
 C         -1.7683844363       -0.4335377123       -0.0027991298
 C         -1.1792149916       -1.7205143532        0.0322690400
 C          0.1690935508       -1.8743312863        0.0363609213
 C          1.0167168136       -0.7497463315        0.0040091100
 C          2.4109859586       -0.9235919316        0.0060990257
 C          3.2744641725        0.1450416792       -0.0166368651
 C          4.7281951553       -0.0407423188       -0.0003052447
 C          5.5454180194        0.8062306841        0.7505876916
 C          6.9129818064        0.6350011783        0.7723140757
 C          7.4958271217       -0.3941574373        0.0307898753
 C          8.8965671751       -0.5708323889        0.0439574658
 N         10.0347174784       -0.7138485551        0.0527305931
 C          6.6893674324       -1.2472279561       -0.7249438386
 C          5.3227159545       -1.0687645241       -0.7344015874
 C          2.7135497018        1.4375165129       -0.0537621032
 C          1.3628825123        1.6312582612       -0.0692815221
 C          0.4417678334        0.5528922634       -0.0352103706
 C         -0.9740813304        0.7047380742       -0.0385455498
 H         -1.8138135385        2.1055578914       -2.2692081825
 H         -0.2346423753        2.6609269677       -1.7395226972
 H         -1.6431375076        3.7133352250       -1.5706671474
 H         -1.9399052813        3.2187507610        1.7143129546
 H         -0.3585892959        2.4736274012        1.6424817393
 H         -0.6981950655        3.9203145304        0.6858235690
 H         -3.3050009548        4.1618108734       -0.0527359523
 H         -5.7496890192        4.1852641919        0.0246420984
 H         -6.9947019527        2.0426193849        0.0993563217
 H         -5.7748057683       -0.0770354404        0.0924160001
 H         -4.0948050427       -1.7031584432       -2.0829859322
 H         -5.4437253383       -3.7750160012       -2.0094385680
 H         -6.0117371821       -4.7970305320        0.1616196031
 H         -5.2359818813       -3.7528419038        2.2568795017
 H         -3.8877687086       -1.6805166738        2.1770770344
 H         -1.8193524861       -2.5886688650        0.0538663872
 H          0.6068929535       -2.8615221924        0.0619892051
 H          2.7954186994       -1.9328364574        0.0566312328
 H          5.0977742370        1.5932791220        1.3393494354
 H          7.5401482282        1.2890014938        1.3606086544
 H          7.1450990211       -2.0396514922       -1.3007496274
 H          4.7031867154       -1.7193999384       -1.3336854561
 H          3.3720072201        2.2932729630       -0.0978773791
 H          1.0111335562        2.6462958384       -0.1053120352
  58
  -86.1950584094000       0.465059075928263      !
 C         -1.0752847389        2.9235256755       -1.2631439211
 C         -1.6140623341        2.0904633935       -0.0714619198
 C         -1.3525466461        2.7630537453        1.2954495521
 C         -3.1269213284        2.0288258190       -0.1987550187
 C         -3.8399157659        3.2130027116       -0.3288155726
 C         -5.2208373840        3.2293088307       -0.3937912307
 C         -5.9169754993        2.0361043165       -0.3183897320
 C         -5.2315884890        0.8461293716       -0.1898853941
 C         -3.8355130573        0.8295082035       -0.1351971873
 N         -3.1530862663       -0.3696211229       -0.0167175207
 C         -3.9067419972       -1.5664965174        0.1457023297
 C         -4.4481912307       -2.2123526748       -0.9590981494
 C         -5.1901303143       -3.3670380057       -0.7846682137
 C         -5.3920205634       -3.8792896628        0.4864547389
 C         -4.8516150858       -3.2356258001        1.5872180537
 C         -4.1106808357       -2.0791891229        1.4204536222
 C         -1.7715894064       -0.4314464902       -0.0330700264
 C         -1.1831049266       -1.7192086311       -0.0432730445
 C          0.1650744153       -1.8735007765       -0.0524102329
 C          1.0128691434       -0.7484911138       -0.0396216492
 C          2.4068954705       -0.9225874513       -0.0235023002
 C          3.2713057807        0.1457758691       -0.0104010816
 C          4.7247722737       -0.0415359258       -0.0049274861
 C          5.3078145897       -1.0727731703        0.7341573820
 C          6.6739427024       -1.2547236767        0.7421121035
 C          7.4926648968       -0.4008098795        0.0008277992
 C          8.8927906438       -0.5820974922        0.0042464446
 N         10.0300943229       -0.7314006427        0.0078202449
 C          6.9220615864        0.6330138420       -0.7436799500
 C          5.5547191505        0.8064403582       -0.7409203941
 C          2.7099915908        1.4388324949       -0.0041823097
 C          1.3594149672        1.6332519021       -0.0165961923
 C          0.4382620796        0.5548170723       -0.0424535662
 C         -0.9773903113        0.7068893132       -0.0580740858
 H         -0.2964971767        2.3882970030       -1.7987949114
 H         -0.6782743738        3.8816890298       -0.9356849981
 H         -1.8754858160        3.1188967898       -1.9740021045
 H         -1.7116206580        3.7892679700        1.2911503330
 H         -1.8947343114        2.2193991998        2.0681837989
 H         -0.3015971548        2.7597139444        1.5646319358
 H         -3.3044820056        4.1493112395       -0.3776359740
 H         -5.7474385230        4.1659973163       -0.4947275316
 H         -6.9959690715        2.0284091508       -0.3589559881
 H         -5.7810173248       -0.0804892442       -0.1273034938
 H         -4.2845563467       -1.8031533884       -1.9452125473
 H         -5.6111286380       -3.8684427638       -1.6433696053
 H         -5.9712274022       -4.7806729045        0.6191141946
 H         -5.0089893480       -3.6332103005        2.5787210863
 H         -3.6842425729       -1.5677432295        2.2708617099
 H         -1.8239759708       -2.5870654400       -0.0520145763
 H          0.6026769438       -2.8610264592       -0.0656727741
 H          2.7903169839       -1.9330744151       -0.0490418473
 H          4.6798807664       -1.7243635213        1.3234707322
 H          7.1196876820       -2.0512493567        1.3199416681
 H          7.5586632781        1.2887843819       -1.3197335962
 H          5.1176892954        1.5965425126       -1.3333857785
 H          3.3672527459        2.2955227588        0.0382388941
 H          1.0073245129        2.6487851497       -0.0021093571
