63
 energy: -99.727812253908 gnorm: 0.000092555913 xtb: 6.7.1 (edcfbbe)
C           -1.30256605077678        5.70549327857977        0.06806303482145
C           -2.57034143343624        5.22084816416651       -0.20800722544621
C           -2.80182648974009        3.85672039927222       -0.24293429403796
C           -1.75378461164511        2.97655294200680       -0.00532565100359
N           -1.94780238970284        1.56869216999384       -0.02866834029461
C           -2.05296358257723        0.89687612197521       -1.23316707280768
C           -2.27927220139455        1.58161696689214       -2.42906229858059
C           -2.43758334533083        0.88886392940050       -3.61158972363869
C           -2.37318404481055       -0.49554551470051       -3.62903437809561
C           -2.10851882077937       -1.18048297122064       -2.45749277659373
C           -1.94295183349452       -0.50091819638913       -1.26098072017822
C           -1.48904122782362       -1.20654085312441       -0.01290980229922
C           -1.71918844168825       -2.69586215669319       -0.00684180306860
C           -2.91415491003504       -3.37812990018285       -0.01616400165918
C           -2.88700787754565       -4.76887421230414       -0.00447547986640
C           -1.68083296010103       -5.45528712967494        0.01702222131489
C           -0.47280470416168       -4.77975935452155        0.02694424082530
C           -0.49573442668383       -3.39036979405425        0.01470120240841
C            0.57943950998885       -2.43774637447769        0.01897766113211
N            1.88965628408983       -2.58670812930637        0.03313812226966
C            2.70466065877517       -1.52857895982485        0.02495680793245
C            4.07847538777188       -1.65010156362629        0.03628042587551
C            4.92908871048995       -0.52926047819257        0.02147294195066
C            6.33093152756403       -0.65719350396712        0.03225342110566
C            7.13808335498261        0.45073408830821        0.01422986585694
C            6.57769192025660        1.73280280270961       -0.01538978591785
C            5.21534318518473        1.89073845517864       -0.02619405470583
C            4.36064817371594        0.77468941511919       -0.00794533095729
C            2.95714247279088        0.90772190599912       -0.01780877514299
C            2.12295648925369       -0.18252473006036        0.00028666924732
N            0.77967412308964       -0.07036729300810       -0.00544284778272
C            0.03579607089489       -1.13363281644718        0.00056102676668
C           -1.96780144277213       -0.49457255072943        1.22128382333030
C           -2.16527742847695       -1.16131656652942        2.42023684227002
C           -2.48140736237808       -0.46433563412002        3.57184254150790
C           -2.58213479834651        0.91777294546585        3.53117197652248
C           -2.39168640766288        1.59701850405927        2.34582590661994
C           -2.08840331806520        0.90010826512228        1.17388717759131
C           -0.48348528234382        3.46101395968603        0.27701125452934
C           -0.26098570202704        4.82564362807076        0.31306280830988
H           -1.12738050959009        6.77046208077676        0.09474987961947
H           -3.38361939154957        5.90664315116336       -0.39338028645389
H           -3.78956840238231        3.46953406851056       -0.44706527933485
H           -2.32407107527432        2.65958663568147       -2.42962927753027
H           -2.61290995173544        1.43443446749613       -4.52670315779495
H           -2.50406741995971       -1.03649673105053       -4.55333373121621
H           -2.01549225083406       -2.25631903891669       -2.46941832452443
H           -3.85295943627206       -2.84370273855895       -0.03245931356308
H           -3.81570493476265       -5.31956689767946       -0.01199414909795
H           -1.68586040275770       -6.53552629185954        0.02618696042070
H            0.46742062964180       -5.30832774681153        0.04369986821584
H            4.50449328800458       -2.64185831906046        0.05556447749848
H            6.76075615133268       -1.64847442117866        0.05461083082981
H            8.21271655265219        0.33981225680685        0.02241432734677
H            7.22534163778273        2.59737504223986       -0.02984468709203
H            4.77863758083534        2.87934844672125       -0.04947021381272
H            2.52158407716311        1.89574054943251       -0.04608671215983
H           -2.06015152117330       -2.23567146319284        2.44982155790096
H           -2.63424734083025       -0.99491611799954        4.49881107826666
H           -2.81460991321886        1.47052025751150        4.42903131402925
H           -2.47902606907168        2.67260685777170        2.31947062770013
H            0.31150230183609        2.75495160202936        0.46578598526307
H            0.72644355099981        5.20382031232347        0.53142084923488
