63
 energy: -99.727798959154 gnorm: 0.000088640313 xtb: 6.7.1 (edcfbbe)
C           -2.06532052825918        5.53667888633627        0.04947380662991
C           -0.89971565468849        4.81669872016164        0.25387067168071
C           -0.92558041999730        3.43378624326276        0.22986691342249
C           -2.12378112431188        2.77113841478434        0.00062947646853
N           -2.11878238534872        1.34933858587424       -0.01374603339320
C           -2.14838635825578        0.66691337971482       -1.21620252053511
C           -2.46577011871188        1.31768308860349       -2.41054674884191
C           -2.54434663402913        0.61024272464206       -3.59226561158400
C           -2.30859301701242       -0.75548054304463       -3.61038511097088
C           -1.95585014357810       -1.40192800114747       -2.44025457345383
C           -1.86894437390130       -0.70681158495247       -1.24422941266842
C           -1.33173911015920       -1.35507201258801        0.00187054884532
C           -1.40387444366516       -2.86058681419132        0.01037351913405
C           -2.52074496965922       -3.66427109334942        0.01105820630977
C           -2.34776245717394       -5.04449321859586        0.02069622153559
C           -1.07608547790517       -5.60057232818145        0.02997275519570
C            0.05452196079416       -4.80210986039277        0.03006171153052
C           -0.11417864841739       -3.42277136780402        0.02020921786089
C            0.85480166550993       -2.36238713294668        0.01650963800800
N            2.17341056037972       -2.37307166176752        0.02136146864967
C            2.87293228638072       -1.23533076420990        0.00992881134891
C            4.25189591595986       -1.21212895201971        0.01348250689755
C            4.98012262103037       -0.00819406154957       -0.00361127631881
C            6.38767854885766        0.01131204873255        0.00007252801127
C            7.07430581422619        1.19768151802793       -0.01971459204532
C            6.38251313326111        2.41397721867279       -0.04430952803850
C            5.01104980698487        2.42839954620411       -0.04797098471993
C            4.27789979485061        1.22901970167600       -0.02738744113279
C            2.86806895231011        1.21408869955649       -0.02919920807029
C            2.15299999296972        0.04228671505416       -0.00905670518052
N            0.80546597782719        0.01275834035427       -0.00703886089127
C            0.17700269443196       -1.12237184163037        0.00336203388902
C           -1.87482645420965       -0.69726093724924        1.23959768948612
C           -1.97510910713363       -1.37859931323297        2.44252247994180
C           -2.35722076077649       -0.72108387328272        3.59724967278640
C           -2.62268102622128        0.63896172318936        3.55570014455334
C           -2.53050946482647        1.33215340599785        2.36674124117053
C           -2.16265515018518        0.67278348892742        1.19148423280069
C           -3.29539492315615        3.49061641109944       -0.19786492500572
C           -3.26071870366747        4.87390464958645       -0.17495554127306
H           -2.04340281550705        6.61593102651145        0.06695058555630
H            0.03127611094144        5.33392423643026        0.43109361940616
H           -0.03027631650673        2.85097915824138        0.38747593057994
H           -2.64529042818137        2.38161566175709       -2.40984533677105
H           -2.79198100646548        1.12937510431018       -4.50604006928767
H           -2.37656666962277       -1.30898135863539       -4.53401967781190
H           -1.73228263641131       -2.45838528790864       -2.45268543293416
H           -3.51046597781164       -3.23113665464178        0.00393256904663
H           -3.21358708495832       -5.68958186750434        0.02088434778273
H           -0.96767369914417       -6.67537985347378        0.03720336529757
H            1.04508565218107       -5.22920077019030        0.03731523303345
H            4.77971271615710       -2.15373693969030        0.02864192131281
H            6.91900930349740       -0.92956063179423        0.01857038946294
H            8.15467719331884        1.19989859450965       -0.01675907181608
H            6.93599954074285        3.34163445215240       -0.06041572026686
H            4.47322556121630        3.36592377414279       -0.06717056026821
H            2.33048304688753        2.15068078424921       -0.05110637062368
H           -1.74181708403240       -2.43259459851617        2.47233649691026
H           -2.43340618109709       -1.26326864022000        4.52697022863187
H           -2.90726785582826        1.16307082532042        4.45572966776148
H           -2.74515878031758        2.38969991147420        2.34044321700384
H           -4.22390849177993        2.96392425591029       -0.36425810705880
H           -4.17027613007153        5.43496293207632       -0.32984484423092
