79
 energy: -124.240357018038 gnorm: 0.000164080548 xtb: 6.7.1 (edcfbbe)
C           -5.79391777244614       -3.60436740976525       -2.47850283705427
C           -5.83749461792801       -2.36776632679377       -3.10573297483910
C           -5.85579437044009       -1.19397809574084       -2.36370457005415
C           -5.83001488026437       -1.28522176901071       -0.98882206711531
C           -5.78579462702515       -2.53321162999998       -0.34943376109477
C           -5.76701924093862       -3.70029975799929       -1.09615156549491
C           -5.76921407293717       -2.31369471839027        1.08839943149684
C           -5.72733083140592       -3.20550549437443        2.14804364033572
C           -5.72282152473747       -2.70241685323851        3.43940980594153
C           -5.75933851989385       -1.33507800625198        3.67086656172189
C           -5.80089012407949       -0.43534200024820        2.61368684334875
C           -5.80533044610974       -0.93159251169127        1.32789604811400
C           -5.84265344283269       -0.16722061544994        0.02675324481553
C           -7.03626350790870        0.74851665299156       -0.10830140070417
C           -8.37155011163333        0.42868756428933       -0.04026977233794
C           -9.30897300485894        1.44426462454676       -0.20405249321082
C           -8.90413972594545        2.75428358239821       -0.43287461966335
C           -7.56352673574819        3.08452730519612       -0.50165150974749
C           -6.61549635000451        2.07601717830168       -0.33846236527166
C           -5.18128182472379        2.11002415235654       -0.35813590954329
C           -4.27769363246900        3.16246079302757       -0.54778343308320
C           -2.93356807042776        2.90365494413512       -0.51828285070406
C           -2.43425496563364        1.59372743714050       -0.29643557038876
C           -1.04322654515724        1.35110669716684       -0.26562778303653
N           -0.56486478194834        0.09595248407512       -0.05174076436575
C            0.70367899935882       -0.13152966758374       -0.00655317474271
C            1.69964974944485        0.87347911575151       -0.18276559031233
C            3.10472277735803        0.62970182971685       -0.13158458825648
C            3.63404268658474       -0.49487984266276        0.54133110602898
C            4.98374272399133       -0.73222985633148        0.58805554602092
C            5.88352170340812        0.14630664097409       -0.02888406400226
N            7.25679948636389       -0.09419761940612        0.01992608560926
C            8.22931928395327        0.83107432226494        0.34786552618468
C            8.09241103037414        2.15275050426762        0.75270968198337
C            9.24270548182406        2.85798921176815        1.05570204386352
C           10.50092978407013        2.26639165807194        0.97280035753473
C           10.64172119181210        0.94115790345354        0.60034516317791
C            9.50191644822934        0.21451925586265        0.29022492215211
C            9.27527171999523       -1.15288029786945       -0.09743653260291
C           10.11758268875492       -2.22835531832498       -0.33624064523284
C            9.55972090786346       -3.43119126874277       -0.73223405788181
C            8.18420175718407       -3.55950007660250       -0.90972259781486
C            7.32518029204008       -2.50076985099095       -0.67857329262837
C            7.87595606071645       -1.29959847316517       -0.25041907725286
C            5.37963824950914        1.26998614368246       -0.69619552853900
C            4.02923639683657        1.50222346154251       -0.74914945767246
C            1.11395969038722        2.15212432159046       -0.41687499938143
N           -0.15732283264904        2.36752234126147       -0.44806938288638
C           -3.35450003290773        0.53112403620744       -0.10414653585468
C           -4.69003019688262        0.79810282569674       -0.13861035010764
H           -5.78042139078476       -4.50422288307428       -3.07681057460804
H           -5.85774145081751       -2.31697984265753       -4.18482902450923
H           -5.88907517242775       -0.23096378152857       -2.85295296020929
H           -5.73265323486245       -4.66543364325279       -0.61251790171657
H           -5.69926248990990       -4.27089269903297        1.97274824175577
H           -5.69054430077171       -3.38355815511982        4.27778507866551
H           -5.75492128775675       -0.96521340475747        4.68603095606750
H           -5.82795552266385        0.62963638872303        2.79481335217003
H           -8.68809519307955       -0.58937771721641        0.13664535866459
H          -10.36248623030392        1.21116871249560       -0.15419491464705
H           -9.65127070667839        3.52528033147255       -0.55740249620654
H           -7.25411273860062        4.10395820909628       -0.67839616965072
H           -4.64077166347190        4.16644354941060       -0.71267456073221
H           -2.21369335351354        3.69622780930164       -0.65674494295785
H            0.98824780141990       -1.16893755920580        0.11947825943726
H            2.96527584473706       -1.16694016191460        1.05672879710997
H            5.36526806214315       -1.58080562860282        1.13639215029141
H            7.12119363652035        2.61427152446562        0.84236205545551
H            9.16228036120575        3.88854944940296        1.36834845965800
H           11.37628491634068        2.85057430643063        1.21503850912793
H           11.61588609705858        0.47826238417569        0.55755068390777
H           11.18569824753420       -2.12471694179924       -0.21996933354101
H           10.19828740755949       -4.28152562367004       -0.92000513444036
H            7.77903247483882       -4.50510967768320       -1.23853340458350
H            6.26348015212853       -2.60472458989327       -0.84080341140679
H            6.06311422043077        1.93433226597765       -1.20386093095232
H            3.66549359540368        2.35478173292916       -1.30176781966516
H            1.73904975653281        3.02996451366979       -0.52510582449157
H           -2.97385416577441       -0.46563848281171        0.05998461347845
