  79
       -124.26709747
 C         -5.6402765787       -3.4215496806       -2.7284730751
 C         -5.6429998906       -2.1437692885       -3.2673695687
 C         -5.6970810711       -1.0256122728       -2.4458408604
 C         -5.7473431661       -1.2161924826       -1.0827629169
 C         -5.7437865517       -2.5054832204       -0.5316289810
 C         -5.6905599519       -3.6162032462       -1.3573335055
 C         -5.8020124908       -2.3876902075        0.9168630517
 C         -5.8285931458       -3.3507615570        1.9119476352
 C         -5.8898514577       -2.9377967547        3.2333479469
 C         -5.9229444350       -1.5899681581        3.5575873033
 C         -5.8968146071       -0.6188873783        2.5653716035
 C         -5.8365215218       -1.0264130334        1.2511282404
 C         -5.8117808248       -0.1724530747        0.0062513410
 C         -7.0081666256        0.7403880599       -0.1091412776
 C         -8.3432299425        0.4015720579       -0.1264934634
 C         -9.2815743441        1.4186081953       -0.2410756321
 C         -8.8851712215        2.7446824982       -0.3352419156
 C         -7.5434759246        3.0893330078       -0.3177340198
 C         -6.6009504407        2.0796619623       -0.2040202404
 C         -5.1500004411        2.1237415259       -0.1622893159
 C         -4.2639001193        3.1891565634       -0.2293887136
 C         -2.9079941496        2.9303333090       -0.1784670461
 C         -2.4276553395        1.6234037543       -0.0606958727
 C         -0.9899577088        1.3763775803       -0.0266669577
 N         -0.5757837294        0.1133481575        0.0927775796
 C          0.7193640455       -0.1092259313        0.1015797228
 C          1.6690670587        0.9126898947        0.0040353570
 C          3.1072760276        0.6589070425        0.0085313606
 C          3.6512457348       -0.3425016736        0.8127419412
 C          5.0091503841       -0.5835960243        0.8187671538
 C          5.8582830908        0.1634047219        0.0049427420
 N          7.2336319932       -0.0884094223        0.0004702372
 C          8.2308166525        0.8588212754        0.1332660381
 C          8.1297732712        2.2261298816        0.3461572052
 C          9.3013370235        2.9477082311        0.4743201380
 C         10.5479912184        2.3301786181        0.4031575347
 C         10.6545146593        0.9663516618        0.2174753973
 C          9.4910274326        0.2200313986        0.0857047946
 C          9.2323964991       -1.1816642099       -0.0910552548
 C         10.0527077191       -2.2939027926       -0.2253274022
 C          9.4662242027       -3.5298818174       -0.4101122106
 C          8.0811815477       -3.6619625953       -0.4783649764
 C          7.2444978281       -2.5699983736       -0.3474955432
 C          7.8271732586       -1.3289053785       -0.1348099775
 C          5.3217486432        1.1620202573       -0.8049308999
 C          3.9648830024        1.4097510302       -0.7952928529
 C          1.1243302344        2.1960700663       -0.1018247517
 N         -0.1698499392        2.4248981184       -0.1232379965
 C         -3.3201529173        0.5486602517        0.0131245034
 C         -4.6670892288        0.8102721348       -0.0386753686
 H         -5.5980391809       -4.2763998755       -3.3876815489
 H         -5.6022991805       -2.0167135689       -4.3391142714
 H         -5.6991906427       -0.0299575656       -2.8648298378
 H         -5.6879056715       -4.6134821388       -0.9427885654
 H         -5.8032545068       -4.4018125820        1.6646289324
 H         -5.9127772539       -3.6751279240        4.0225485446
 H         -5.9715801265       -1.2918436317        4.5945394645
 H         -5.9242758482        0.4315299385        2.8175003378
 H         -8.6513831744       -0.6312269263       -0.0531165376
 H        -10.3334165432        1.1741560422       -0.2572683800
 H         -9.6339899232        3.5181704553       -0.4236309731
 H         -7.2392844345        4.1228428370       -0.3913697418
 H         -4.6264521663        4.2019995417       -0.3230141444
 H         -2.1903710398        3.7337983821       -0.2315896202
 H          1.0173739074       -1.1488448919        0.1699632491
 H          3.0057091221       -0.9162112642        1.4610954312
 H          5.4244754440       -1.3407453725        1.4665936164
 H          7.1689812709        2.7124200593        0.4228971693
 H          9.2485702366        4.0140494129        0.6374394410
 H         11.4402657342        2.9295013225        0.5054847027
 H         11.6197586835        0.4844494169        0.1797443664
 H         11.1263657276       -2.1881029298       -0.1900691040
 H         10.0856321395       -4.4081210153       -0.5139541941
 H          7.6511122191       -4.6391676501       -0.6411469021
 H          6.1733329992       -2.6814368894       -0.4219987343
 H          5.9733917396        1.7270988381       -1.4541751667
 H          3.5586664374        2.1729777777       -1.4423816501
 H          1.7583613613        3.0733694262       -0.1540190170
 H         -2.9374985752       -0.4555603450        0.1038408247
