79
 energy: -124.319044587637 gnorm: 0.000041663970 xtb: 6.7.1 (edcfbbe)
C           -5.77259186048078        3.18381519072732       -2.98347547153254
C           -5.81107591782883        3.53666443651602       -1.64261076264934
C           -5.83667406140865        2.56370179651497       -0.65166817964248
C           -5.82153026440691        1.23951617794307       -1.03209846316034
C           -5.78155548626003        0.87651791068682       -2.38622794242214
C           -5.75733162110994        1.85258857989075       -3.36928098695097
C           -5.77134738332657       -0.57584723337700       -2.47468227576819
C           -5.73497442017523       -1.42492467916852       -3.56898191987421
C           -5.73149193905861       -2.79323282718768       -3.34767244455468
C           -5.76285027754163       -3.30652235512754       -2.05952527950193
C           -5.80014061561874       -2.46152370820184       -0.95783668860213
C           -5.80450489451361       -1.10086344064801       -1.17454298008908
C           -5.84451474972032        0.01118048252314       -0.15248888605399
C           -7.04878072480572       -0.05239908182193        0.75646055254870
C           -8.38307629955164       -0.04584519611771        0.41183368894862
C           -9.32875794426708       -0.11420237650369        1.42669191939558
C           -8.94094405859351       -0.18635579192747        2.75710144699435
C           -7.60058194466300       -0.19402983129136        3.10804476965911
C           -6.65076938435224       -0.12711683435713        2.10021799434307
C           -5.19915350432406       -0.12058549218062        2.15192633292513
C           -4.31993220470858       -0.18142857753701        3.22397992831099
C           -2.96149924948829       -0.16262105867295        2.97269438578360
C           -2.47004826089281       -0.08309486995183        1.66642063386110
C           -1.03085548184553       -0.06642756364967        1.42645836965462
N           -0.60807722212491        0.04639558888188        0.16485338076767
C            0.68956165870768        0.05453244613768       -0.05027924812510
C            1.63400992172797       -0.04094727185608        0.97650888203489
C            3.07533610249374       -0.02930840934049        0.73141551597601
C            3.62289129047354        0.80006236477241       -0.24735117948780
C            4.98230216155502        0.81007911450032       -0.48372491220710
C            5.82924026331938       -0.01141896510858        0.25722327629542
N            7.20883913010168       -0.00455776842109        0.01577244920310
C            7.99654634883272       -1.11792196207443       -0.20820428003869
C            7.63533315365386       -2.45560959847631       -0.28765175987857
C            8.62972171193858       -3.37854346170301       -0.55151175156096
C            9.95335612886968       -2.98736671926395       -0.74314518756483
C           10.31451200057925       -1.65560098878175       -0.69024686624634
C            9.33262001493321       -0.70921208248627       -0.42568181032577
C            9.34431314840341        0.72352939120878       -0.31852788130770
C           10.34700510636410        1.68058770791601       -0.41066393252460
C           10.01489909814499        3.00770528895793       -0.22299945390834
C            8.70493898457886        3.38399332012359        0.06730140455634
C            7.69011647928726        2.45048308283829        0.16202803931088
C            8.01325173841250        1.11740611298008       -0.04927638198671
C            5.28980715687277       -0.84052525705716        1.23834180430017
C            3.92945522315122       -0.84755726084117        1.47054347851841
C            1.08134196478361       -0.14819363552347        2.25636058401025
N           -0.21522875429376       -0.16497190476631        2.47930160844784
C           -3.35646917615682       -0.02005294880289        0.58515347004973
C           -4.70622493646732       -0.04048826049095        0.83831530701698
H           -5.75397129427822        3.95823612853748       -3.73691303996955
H           -5.82155724299090        4.58078347987137       -1.36513156931849
H           -5.86672717240118        2.83858415731247        0.39302669898933
H           -5.72702645163499        1.58353520024340       -4.41478713971164
H           -5.70975879239655       -1.03072850122112       -4.57411275924919
H           -5.70343127441042       -3.47039760854488       -4.18930849447061
H           -5.75868719910994       -4.37653374918286       -1.91051767130041
H           -5.82458624678948       -2.86217023974236        0.04548730832886
H           -8.68564617282106        0.01039565392718       -0.62385738413992
H          -10.37969346608358       -0.11082316393038        1.17661750120766
H           -9.69532525572096       -0.23781834580994        3.52886068920020
H           -7.30283191389134       -0.25076920244839        4.14440364996121
H           -4.68824981910988       -0.24267416269465        4.23696576915735
H           -2.25121504030836       -0.20896304064855        3.78356010232203
H            0.99165844119632        0.12174200236693       -1.08893425771629
H            2.97782848743037        1.45053826780153       -0.81917787926124
H            5.39483677581887        1.44471559568147       -1.25357849173548
H            6.61005393378815       -2.76823926711010       -0.15895581058813
H            8.37396381349929       -4.42633170415565       -0.61449355005796
H           10.70226854324580       -3.73924232677589       -0.94465042756204
H           11.33738953860874       -1.35125878753401       -0.85479903368321
H           11.36512799693775        1.38760317550176       -0.61933171289561
H           10.77956501095110        3.76750402035703       -0.29216461028173
H            8.47786756318256        4.42835477010652        0.22527551938939
H            6.68192686571680        2.75149700528483        0.40391691524300
H            5.94404944660268       -1.46795926550977        1.82471342592167
H            3.52102092915948       -1.50434864662515        2.22425613475880
H            1.70911651364569       -0.20552079428966        3.13796379617844
H           -2.96638166704178        0.04082776880953       -0.41892897567490
