  70
       -107.40602503
 C         -1.6622299527        1.5017146493        2.1042796179
 C         -0.8940864198        0.7730914643        1.0438437260
 C          0.4709820803        0.7889670280        1.0217312798
 C          1.2275501665        0.0992580531        0.0272981784
 N          2.5569404462        0.3311120313       -0.0889369222
 C          3.3547066286        1.0100670979        0.8581391964
 C          3.1489570440        2.3325953675        1.2384639893
 C          4.0443654616        2.9563258750        2.0851864208
 C          5.1927693286        2.2854738774        2.5293292737
 C          5.4368824291        0.9946063689        2.1121489672
 C          4.5207999491        0.3460473312        1.3024570791
 S          4.7918729435       -1.2275594868        0.5458205097
 O          3.7180083878       -2.1325884169        0.8996667075
 O          6.1427372178       -1.6796492492        0.7474662910
 C          4.5148022049       -0.6762833137       -1.1077049279
 C          5.3643996622       -0.8333484294       -2.1880403892
 C          5.0108746156       -0.3185436837       -3.4171621404
 C          3.7985093470        0.3765845000       -3.5654257584
 C          2.9596513189        0.5620302115       -2.4865903838
 C          3.3053705289        0.0432494256       -1.2405859577
 C          0.5421453999       -0.8649413410       -0.7884501536
 C          1.2732423968       -1.9185826417       -1.5573558085
 C         -0.8256728277       -0.8933705770       -0.7381838313
 C         -1.5734927795       -0.0273315762        0.0878251080
 N         -2.9772660581       -0.0535856285        0.0340818068
 C         -3.6571853103       -1.2139181225        0.3722898628
 C         -2.9433854096       -2.3168320667        0.8625936354
 C         -3.5867466276       -3.4910024515        1.1825440761
 C         -4.9620723919       -3.5845696268        1.0429291675
 C         -5.6770501590       -2.4782800809        0.6230332713
 C         -5.0550500532       -1.2814232656        0.2930723893
 C         -5.9012999792       -0.0851684366       -0.0879428241
 C         -6.8353616097        0.2445470580        1.0912952524
 C         -6.7260434916       -0.4338491307       -1.3411242281
 C         -5.0537957603        1.1289642751       -0.4003922524
 C         -5.6682813824        2.3146135542       -0.7798019077
 C         -4.9418942190        3.4331914933       -1.1441615541
 C         -3.5579312453        3.3635384431       -1.1762449493
 C         -2.9228212877        2.2009575566       -0.8036328905
 C         -3.6534958846        1.0860062650       -0.3678665742
 H         -2.4464338486        0.8663352844        2.5139465457
 H         -2.1368018109        2.3955766550        1.6985896692
 H         -0.9980682265        1.8012336931        2.9104704921
 H          1.0052118741        1.3229435221        1.7909894393
 H          2.3048387819        2.8795514528        0.8436548934
 H          3.8691302225        3.9765133018        2.3893494110
 H          5.8896545738        2.7908353245        3.1789265694
 H          6.3246560760        0.4561662589        2.4049784484
 H          6.2848842206       -1.3760848382       -2.0396430405
 H          5.6585809272       -0.4479671997       -4.2697734177
 H          3.5289393752        0.7803463157       -4.5289208714
 H          2.0406137108        1.1226564991       -2.5883380536
 H          2.1214728940       -2.2740795930       -0.9719331684
 H          0.6043054942       -2.7554237167       -1.7475462018
 H          1.6470108759       -1.5585545528       -2.5143167656
 H         -1.3656738795       -1.5970136844       -1.3556382007
 H         -1.8775577339       -2.2407084548        1.0050288100
 H         -3.0154095446       -4.3289519639        1.5509244279
 H         -5.4764800258       -4.5019266042        1.2834969059
 H         -6.7514368295       -2.5537911206        0.5574477617
 H         -6.2470230944        0.4820111269        1.9755009115
 H         -7.4648243754        1.0985631087        0.8585568775
 H         -7.4789658984       -0.5985630410        1.3243912545
 H         -7.3540876933       -1.3014405004       -1.1612105800
 H         -7.3656094266        0.3956296370       -1.6280919827
 H         -6.0601090452       -0.6575813465       -2.1721597502
 H         -6.7456781099        2.3716590064       -0.7989764797
 H         -5.4513032479        4.3414799943       -1.4260691694
 H         -2.9754576556        4.2122371573       -1.5010649054
 H         -1.8475760007        2.1362824747       -0.8609322711
