  101
       -154.30228624
 C          5.6100058005       -4.1376399042        0.3948170215
 C          4.9869579596       -2.7535284033        0.6412438039
 C          6.0406746386       -1.7773045886        1.1926417046
 C          4.4813796963       -2.2015298077       -0.6740510914
 C          5.3466427116       -2.0786222546       -1.7520998133
 C          4.9284646984       -1.5885163702       -2.9754776171
 C          3.6034150287       -1.2310511624       -3.1466213900
 C          2.7252381652       -1.3398840143       -2.0893587331
 C          3.1597024325       -1.7913494667       -0.8411907947
 N          2.2431210803       -1.8746246407        0.2018556915
 C          1.0761557653       -1.1055979858        0.0850133668
 C         -0.1897154493       -1.6810070818       -0.0140156793
 F         -0.3057458949       -3.0239868907        0.0048317927
 C         -1.3363608617       -0.9011841992       -0.1312741601
 N         -2.6224417996       -1.4598772548       -0.2013311124
 C         -3.0948659835       -1.9494607431       -1.4143445410
 C         -2.2023101567       -2.1909263735       -2.4595176211
 C         -2.6454580696       -2.6838133984       -3.6693928509
 C         -3.9926631887       -2.9310668937       -3.8576322634
 C         -4.8793117809       -2.6664844797       -2.8303432212
 C         -4.4599207527       -2.1747655444       -1.6019989511
 C         -5.4905291676       -1.8518143405       -0.5389778953
 C         -6.3178263504       -3.1136263754       -0.2416721162
 C         -6.3936556974       -0.7267073554       -1.0729842603
 C         -4.8527406535       -1.3715793243        0.7467976771
 C         -5.6470215335       -1.0805549858        1.8468279651
 C         -5.1097699736       -0.6491291404        3.0457328222
 C         -3.7378384160       -0.5263204811        3.1697291692
 C         -2.9271114641       -0.8073057233        2.0902145237
 C         -3.4746642453       -1.1985015259        0.8660806521
 C         -1.2022584048        0.4976905941       -0.1769229032
 C         -2.3603031499        1.2699395135       -0.4165511141
 N         -3.2975355291        1.8792440990       -0.6715067424
 C          0.0502941012        1.1151089912       -0.0565792487
 N          0.1837038471        2.5022726585       -0.0745809453
 C          0.9776153391        3.0780806854       -1.0669568315
 C          1.4081580193        2.3004671443       -2.1447471623
 C          2.2243184674        2.8297733327       -3.1214282441
 C          2.6058108590        4.1573497358       -3.0534796203
 C          2.1223948797        4.9444217397       -2.0260961813
 C          1.2975589581        4.4347478566       -1.0320946476
 C          0.7531196687        5.3643570558        0.0295995021
 C         -0.0457494498        6.4808447038       -0.6647915497
 C          1.9345600472        5.9580449804        0.8158515105
 C         -0.1564931144        4.6451333089        1.0031199750
 C         -0.7526251221        5.3715059890        2.0256871476
 C         -1.5475022137        4.7752409152        2.9853058785
 C         -1.7282618949        3.4051432274        2.9491752176
 C         -1.1441158747        2.6603716862        1.9462591341
 C         -0.3870107106        3.2692178719        0.9429633421
 C          1.1804232712        0.2950299460        0.0820052612
 C          2.4520425266        0.8738144693        0.2905230551
 N          3.4775451375        1.3284674849        0.5280859062
 C          2.5822180645       -2.4260333331        1.4337720272
 C          1.6303660307       -2.4932697171        2.4521732677
 C          1.9425126530       -3.0405848250        3.6794008441
 C          3.2187597972       -3.5175089311        3.9136562157
 C          4.1693328970       -3.4238368158        2.9142440258
 C          3.8807274201       -2.8828185656        1.6689313559
 H          4.8532741867       -4.8217347946        0.0157585548
 H          6.0166986965       -4.5495868507        1.3129623030
 H          6.4140006054       -4.0776697884       -0.3319141455
 H          5.5937998849       -0.7940611018        1.3230971862
 H          6.8754562514       -1.6867928242        0.5039552567
 H          6.4178763112       -2.1177073786        2.1524328496
 H          6.3798757372       -2.3645627381       -1.6373722876
 H          5.6288031880       -1.4984154388       -3.7909922396
 H          3.2502925311       -0.8737848232       -4.1024369780
 H          1.6882711724       -1.0827886961       -2.2374771526
 H         -1.1507315134       -1.9941275112       -2.3318247371
 H         -1.9368193026       -2.8694568194       -4.4624177412
 H         -4.3525930868       -3.3156460132       -4.7989040009
 H         -5.9298639944       -2.8415179845       -2.9988375686
 H         -5.6677568035       -3.9024584987        0.1317218546
 H         -6.8138687361       -3.4727181071       -1.1378393831
 H         -7.0776796506       -2.9116435907        0.5067343929
 H         -5.7976160446        0.1659973251       -1.2492576363
 H         -6.8650990602       -1.0196239947       -2.0062792764
 H         -7.1704600901       -0.4852918142       -0.3536274944
 H         -6.7173527828       -1.1848536201        1.7696066131
 H         -5.7563947689       -0.4233617863        3.8790930503
 H         -3.2961114203       -0.2184598623        4.1058536409
 H         -1.8565373220       -0.7358990641        2.2040585616
 H          1.1001593569        1.2727743895       -2.2335413771
 H          2.5572756969        2.2036110910       -3.9351460945
 H          3.2556947504        4.5808883859       -3.8029155304
 H          2.3991451829        5.9860462895       -1.9995446866
 H         -0.8913724946        6.0513128442       -1.1982607776
 H         -0.4238911302        7.1947268013        0.0601365568
 H          0.5744647048        7.0160056012       -1.3769753901
 H          2.5920842966        6.5167675994        0.1569197792
 H          1.5837229729        6.6250388707        1.5974142715
 H          2.5093138574        5.1571853247        1.2765984548
 H         -0.5895072272        6.4357076100        2.0801156238
 H         -2.0045245627        5.3705242883        3.7599491245
 H         -2.3212169407        2.9083317020        3.7020693811
 H         -1.2851094008        1.5945361501        1.9647874211
 H          0.6343051355       -2.1160418688        2.2925811881
 H          1.1880423144       -3.0876347901        4.4501757705
 H          3.4768295453       -3.9462268972        4.8691910634
 H          5.1679683006       -3.7749315528        3.1192694254
