101
 energy: -154.352111185708 gnorm: 0.000108789707 xtb: 6.7.1 (edcfbbe)
C            5.33930575894207       -4.24486539254711       -0.26939915383338
C            5.02489400788414       -2.78902082722915        0.12373778989748
C            6.31019432872657       -2.05758017337119        0.55460418515985
C            4.44530944591423       -2.07888159470968       -1.08212016163066
C            5.18715015773600       -2.01414806286118       -2.25560394965159
C            4.69429583537642       -1.43035801669712       -3.40642318267359
C            3.40632701415100       -0.92723574025899       -3.41005396635622
C            2.65195876376725       -0.97575472358688       -2.25672109474631
C            3.17300216291628       -1.50523910467721       -1.07424938078306
N            2.38845096793485       -1.51475818259000        0.08546699108558
C            1.19056090571963       -0.79461659258702        0.08906520265599
C           -0.04316663541877       -1.43051635789671        0.23255001994909
F           -0.06766290117527       -2.77112140033675        0.36020872723112
C           -1.25659279000637       -0.74498865825686        0.19279679511180
N           -2.47524311737830       -1.42942851607370        0.26059961094960
C           -3.30519063609432       -1.45633899158541       -0.86618316380890
C           -2.88636912824753       -0.85982468588337       -2.05723581954732
C           -3.68956458183943       -0.86421804450833       -3.17870897470796
C           -4.92410584128864       -1.48496207705354       -3.13422778453794
C           -5.31753539902741       -2.12054609060392       -1.97238220375180
C           -4.52739661517473       -2.13118013390919       -0.82909264384200
C           -5.00091914544052       -2.89980554682702        0.38868763364021
C           -5.16329942827403       -4.38100798223785       -0.00112651351910
C           -6.34826733281803       -2.31266538342933        0.84984246197804
C           -4.01944514885466       -2.80046195416495        1.53883093642794
C           -4.31217725760392       -3.42853411670155        2.74317743198518
C           -3.48899610923795       -3.32194093068757        3.84818100293386
C           -2.35452472403162       -2.53510956344402        3.77278122280053
C           -2.03974983544628       -1.90526258242997        2.58681568596279
C           -2.83749431678441       -2.06242406334986        1.45229847892696
C           -1.22214874361391        0.65504727635334        0.03034068475988
C           -2.42808777450844        1.38863353270528        0.01480188513961
N           -3.40199662423413        1.99363298333568        0.01426794247663
C           -0.00404061098130        1.33056463391891       -0.10965019017225
N            0.01634953334559        2.73086663979242       -0.25592580334188
C            0.22124531268777        3.27463953803539       -1.52267899073242
C            0.34998270603863        2.42778920256940       -2.62432885641198
C            0.56698398875223        2.93375254034638       -3.88929705416072
C            0.64712348063179        4.30143404812600       -4.07319563867623
C            0.48460367025800        5.14166634759499       -2.98728332124263
C            0.26211549677117        4.65828584302158       -1.70444261654484
C            0.05339930368147        5.63361776208367       -0.56214754297181
C           -1.17533410273885        6.50576376740867       -0.88144863614033
C            1.31472551563735        6.50646694528690       -0.42495638156903
C           -0.18878416636345        4.92312239686512        0.75577237236947
C           -0.40576371790058        5.67006849081248        1.90657214324575
C           -0.60787697307985        5.08011999752807        3.14038100744498
C           -0.57292831523244        3.70227278110963        3.24605887320125
C           -0.35744345210699        2.93642858258331        2.11872587178148
C           -0.18774123974758        3.53138700123036        0.86768078915268
C            1.19208970448121        0.60585632661901       -0.08709779038490
C            2.41735823438581        1.29766783906246       -0.20342440869057
N            3.40588282672793        1.87496917642241       -0.26679751047192
C            2.82160900753904       -2.15306232404920        1.25372338452682
C            2.04112078865038       -2.09887835277071        2.40947251058178
C            2.43667597265824       -2.73082098167276        3.56999019578370
C            3.63829866037613       -3.41356059921303        3.60194336978010
C            4.43833361932806       -3.42180420399943        2.47562534244264
C            4.06194696117479       -2.79455541543250        1.29394389091794
H            6.02602754950599       -4.28053048328769       -1.10959997110789
H            4.42203343192295       -4.75862835725390       -0.55219789765049
H            5.79093454554343       -4.77991993442352        0.56046679305417
H            6.08281742173398       -1.02091429512245        0.79819034292778
H            7.04454522813346       -2.06827291336629       -0.24542141994927
H            6.74933419145110       -2.52836029135231        1.42922723165459
H            6.18138711652517       -2.43161989870839       -2.27430057934314
H            5.30135139650542       -1.38738374263052       -4.29726304139947
H            2.98239840987891       -0.50301372786713       -4.30721232782010
H            1.63758929691893       -0.60679628332875       -2.28462482823677
H           -1.91632529125771       -0.39027170912499       -2.12155859644950
H           -3.34262430056857       -0.38599356819030       -4.08220731939093
H           -5.56662249383342       -1.48937345392102       -4.00091701722525
H           -6.26989426705923       -2.62653972291408       -1.95929902896284
H           -5.87555897664122       -4.49179095394494       -0.81331017997697
H           -5.51570288720278       -4.96496574308005        0.84397692431667
H           -4.20589876840626       -4.78630172573256       -0.32455487607715
H           -6.22532556270417       -1.26120237196316        1.10465242299706
H           -7.09269930641379       -2.39025412978411        0.06313584848956
H           -6.72076280372901       -2.83769075232947        1.72435053924142
H           -5.21210830902792       -4.01735275596960        2.82573857463165
H           -3.74314883476669       -3.82956618501614        4.76569839336660
H           -1.71825303770305       -2.40118935699766        4.63423763764031
H           -1.16807385317199       -1.26859943146166        2.54875053796882
H            0.27247646360291        1.35809946996748       -2.49311488100843
H            0.66575413391242        2.25793772146504       -4.72528614292635
H            0.82275575885485        4.71214866562383       -5.05537653173210
H            0.53143018280833        6.20711372589447       -3.14919300316523
H           -1.33328539448548        7.24844423895302       -0.10509604837583
H           -1.04796637592469        7.02308966920202       -1.82771328949750
H           -2.06490650064763        5.88100855387792       -0.94638355525933
H            1.49957190883824        7.06296850211922       -1.33905943143903
H            1.20810102621153        7.21509312132440        0.39106443463550
H            2.17984460441826        5.87628905696560       -0.22421472552058
H           -0.41764122521694        6.74678488169781        1.84247306074856
H           -0.77989698535525        5.69164914187680        4.01252606047358
H           -0.70867156007828        3.21782690815838        4.20126556012301
H           -0.31578875043494        1.86116972410092        2.21600698633495
H            1.11423122388297       -1.54689154611442        2.41347436340545
H            1.80869805908798       -2.67910040642221        4.44612186843712
H            3.95909672920476       -3.91738494115901        4.50050999572833
H            5.38932933805181       -3.92829498479699        2.52330041095548
