101
 energy: -154.352326749093 gnorm: 0.000046331032 xtb: 6.7.1 (edcfbbe)
C            5.06440525870756       -4.59758476313065        0.26666015095721
C            4.76852035297788       -3.14719970438519        0.69302518633850
C            5.99511577802330       -2.53037620245968        1.39102403954987
C            4.45798270554857       -2.33554335822851       -0.54790077650061
C            5.39874666840480       -2.25794014996514       -1.56774177601374
C            5.15214700951020       -1.57991158363225       -2.74604242129940
C            3.91899493660784       -0.98468365218207       -2.93859679000105
C            2.97090165930585       -1.04220367087615       -1.93881303686750
C            3.24067095725103       -1.67646421700827       -0.72449732514171
N            2.26067583607719       -1.69929381408157        0.27293340240213
C            1.13418958792231       -0.88374882579351        0.12335308685134
C           -0.14573845561937       -1.42839602227634        0.02016360925492
F           -0.27893780231559       -2.76935733269941        0.03248309398058
C           -1.29342433402650       -0.64459655220198       -0.09361448490910
N           -2.55986304978040       -1.22526966187164       -0.22322912710565
C           -2.88634016789685       -1.92411067121461       -1.39124366532217
C           -1.92993431853022       -2.10117784986257       -2.39272499779914
C           -2.22611925014293       -2.79291973529915       -3.54909131109840
C           -3.49582482024740       -3.30782216042542       -3.73274924545389
C           -4.45681087104764       -3.09297939582857       -2.76345889386620
C           -4.18482031895366       -2.40045201975832       -1.58964937722125
C           -5.30948007881316       -2.15024955770698       -0.60407004568480
C           -5.88568072050111       -3.50515315099000       -0.15103390744002
C           -6.39379822163448       -1.31137793277591       -1.30609889870561
C           -4.83224452489862       -1.39785691028164        0.62120579078508
C           -5.72939384102559       -1.11706433618501        1.64454671547433
C           -5.34164014655668       -0.48253315924591        2.80909702251036
C           -4.01224080443465       -0.14545662733805        2.98555265416417
C           -3.10371279445153       -0.40829658742848        1.98197865328609
C           -3.50602586839142       -0.99378731518121        0.77992358317500
C           -1.13945538954428        0.75659276998018       -0.10249354420565
C           -2.27206415409732        1.58391015651591       -0.26194834643658
N           -3.18107480472284        2.26336313200334       -0.42519801608800
C            0.12966660689738        1.34245477427344       -0.00957303648502
N            0.27259314216638        2.74046307999800       -0.02852217844945
C            0.81286633849610        3.34943188579820       -1.16269615220604
C            1.08951231179800        2.58046747330854       -2.29420606890394
C            1.64077802907349        3.14849549204927       -3.42392548968098
C            1.91120067194395        4.50397508466436       -3.44515286308000
C            1.59338799097423        5.27404785316973       -2.34235558100820
C            1.03356312123849        4.72752857959079       -1.19443936186784
C            0.65751868845319        5.63788925281573       -0.04217187751231
C           -0.36980186634832        6.66724587605076       -0.54911857375190
C            1.92856749593603        6.34653425121971        0.46228890260006
C            0.04798446035017        4.86851515757926        1.11336077585181
C           -0.35334553399858        5.55454592489529        2.25269991438951
C           -0.86715966713948        4.90654496551592        3.36007428278352
C           -0.96157770960753        3.52746718572617        3.35258997975908
C           -0.57261950391975        2.82275505510634        2.23228815381419
C           -0.09739893082403        3.47990390703376        1.09648685812443
C            1.25839235141828        0.51991347563506        0.10198354178556
C            2.53124016956363        1.11176416758423        0.25127949087740
N            3.55537498550740        1.60260507602566        0.40874442890959
C            2.43470603718875       -2.42950956632283        1.45449159421413
C            1.45703717324436       -2.39444874312337        2.45044471677383
C            1.60183015388609       -3.11270484879360        3.61941295105743
C            2.74167566246975       -3.86816764182975        3.82198102534429
C            3.73203815423907       -3.86509588565942        2.85849723039165
C            3.61107309497617       -3.15115802266713        1.67227177760356
H            4.18758372514413       -5.02825266946320       -0.21403170214710
H            5.31988148362004       -5.20891023808826        1.12683038619407
H            5.89307015165381       -4.63469168400515       -0.43387684961516
H            5.78389075513716       -1.49916428722975        1.66953883286364
H            6.85671203330096       -2.53688451780976        0.72987521288296
H            6.24904244672330       -3.08465954558488        2.28977768626723
H            6.35450163783198       -2.74150054623076       -1.44144331307017
H            5.90848634358545       -1.53246712285770       -3.51398021037253
H            3.68793271544552       -0.48187148161151       -3.86511466093294
H            2.00311137729079       -0.59510953207394       -2.11223669087468
H           -0.93862916390446       -1.68838928616969       -2.28057404700012
H           -1.46322966905108       -2.92045619970635       -4.30225640797820
H           -3.74120154296459       -3.85542352566283       -4.62948309126990
H           -5.45183596274672       -3.47347744208873       -2.93194463248966
H           -5.10868201912680       -4.09497898379534        0.33241884478982
H           -6.26564589386367       -4.06672650509359       -0.99909682393781
H           -6.69891003577495       -3.36426157045133        0.55443597452194
H           -5.97981942935351       -0.35176947336860       -1.61179468424547
H           -6.76789172360041       -1.82186087407712       -2.18867786982526
H           -7.22897373700501       -1.12642051918624       -0.63698363756842
H           -6.76382141807716       -1.40081508825723        1.53185161901975
H           -6.06641408643892       -0.27155825226900        3.57995237641647
H           -3.67691748710537        0.31537814800260        3.90202292848616
H           -2.06384549570381       -0.16402048554916        2.14291000452120
H            0.86022286183630        1.52497859918833       -2.29813087487457
H            1.84840622017159        2.53162399178166       -4.28499738947136
H            2.35013321913210        4.96100728186487       -4.31840006966194
H            1.78605078943154        6.33458969923782       -2.38179163728619
H           -1.26819330278466        6.15540856650089       -0.89048912812088
H           -0.64731827549453        7.35710013532195        0.24220490539147
H            0.03423522851579        7.24273273071082       -1.37662979277607
H            2.38429147261940        6.93147165312665       -0.33115050275623
H            1.69845617522604        7.01243561599283        1.28869199459909
H            2.65201240909221        5.60814772007988        0.80457748320266
H           -0.25941868402159        6.62865901645604        2.28217328489593
H           -1.17381966762385        5.47199110589911        4.22630740597594
H           -1.32912790558800        2.99549357351189        4.21684833483339
H           -0.62914912876529        1.74454893529949        2.24847993920338
H            0.57004610577825       -1.79196235663000        2.32452456585936
H            0.82478662194233       -3.07219856647679        4.36778560157422
H            2.86709845765745       -4.43928038360298        4.72876961290030
H            4.63036877351072       -4.43307712460666        3.04203869206245
