85
 energy: -129.621380699616 gnorm: 0.000043003929 xtb: 6.7.1 (edcfbbe)
C           -2.63751382316906       -3.67963882904079        3.35871584281658
C           -2.30377003553889       -2.20185610894540        3.19300077626430
C           -3.56086752592853       -1.34187823812313        3.08241616049186
C           -3.22308657507988        0.13629508879413        2.90282537531704
C           -4.47237193098729        0.98978660006456        2.69225678707384
C           -4.14040418067703        2.44692432906666        2.34232548447912
N           -3.54895505703838        2.57666056190124        1.02580393378943
C           -2.16326268488275        2.61858445918824        0.86922005589889
C           -1.26737712912792        2.77614311825741        1.85845613162226
C            0.21152804207949        2.76209621428180        1.60916555702742
C            0.55767043360805        1.92676972547486        0.40892861581566
C            1.58918255821091        1.07671599744868        0.41005143645887
C            1.95701142747515        0.13789825551601       -0.70997688918956
C            3.31368250611328       -0.47964469340784       -0.49850946011779
C            4.54002307209779        0.14272624280803       -0.45232865970314
C            5.68683347729528       -0.62126346395874       -0.21892517131346
C            7.00852773531212        0.02299834973449       -0.17211169711045
C            7.17906866371646        1.24459236443607        0.47828866273954
C            8.41815948626932        1.85519351519306        0.53180892670363
C            9.48994355765412        1.23272556961897       -0.07974402892289
F           10.71286959588383        1.82861510442590       -0.03386121981228
C            9.35814927904505        0.02389856572332       -0.73681199376014
C            8.11321531082775       -0.57586663426014       -0.77638610856520
C            5.56727145863695       -1.99865090141960       -0.02687675222826
C            4.33555510616629       -2.62752600931600       -0.06014953935926
C            3.20236027705391       -1.86577265315375       -0.29935552009020
C            1.80256618154755       -2.23592041472979       -0.40923563089170
C            1.16129718061860       -3.46111019664942       -0.30031692450150
C           -0.20885646242565       -3.52130154935714       -0.48343419726417
C           -0.95369527842739       -2.37923773397383       -0.78639717706337
C           -2.40549713727952       -2.44607595104329       -1.00950763505215
C           -3.22949056052283       -1.38546930208446       -0.62987563589590
C           -4.59201481844965       -1.41915513974770       -0.85499486383144
C           -5.13323787307356       -2.53441461709597       -1.46599605961750
F           -6.47417199511087       -2.57781967730220       -1.69257807272235
C           -4.35196764160432       -3.60679866557437       -1.85330927615749
C           -2.98974187917812       -3.55398021938556       -1.62359696400059
C           -0.29971770549325       -1.14806514452642       -0.88714853529678
C            1.05875781095043       -1.07968662630831       -0.69027356969290
C           -0.35148236070356        2.10926844450518       -0.70083894521446
C           -1.63486194936182        2.45657967326036       -0.48945459059390
O           -2.44300460011824        2.61683770757454       -1.57613567051439
C           -3.79844620944750        2.60488107887838       -1.37827399251704
C           -4.58397055709826        2.63406809096741       -2.51896682854121
C           -5.96208004240979        2.58018144872158       -2.42004361732697
C           -6.54097380777226        2.48500112420754       -1.16723754760149
C           -5.76008460441528        2.46101065783164       -0.02560929488589
C           -4.36605711294133        2.53760356406686       -0.09467057844366
H           -1.72729713424296       -4.27268470312029        3.41403995614113
H           -3.21067699063499       -3.84307074506083        4.26937966145919
H           -3.22795441695060       -4.03336201131634        2.51576202590116
H           -1.70871264051752       -1.86677716109705        4.04602750334431
H           -1.69791043007000       -2.06648480455871        2.29375434120143
H           -4.14948669809498       -1.68406184619632        2.22744414279953
H           -4.17189110241645       -1.47141085299479        3.97914882283703
H           -2.55840524736241        0.24224786871537        2.04364625565177
H           -2.67992165018149        0.49333997714252        3.78067065238528
H           -5.06807042590208        0.55355042715789        1.88809535720171
H           -5.07886941992757        0.97998645025256        3.60016902173852
H           -3.45227376196453        2.85147004700819        3.08158651942886
H           -5.04354948730626        3.06095058608027        2.37989208678565
H           -1.55734123009179        2.93882173407876        2.88177152684261
H            0.55426334120489        3.79312209966748        1.43546616785783
H            0.73209528237467        2.39523615453469        2.49529042880623
H            2.18924211197193        0.97836267410218        1.30418146561283
H            1.89306771791730        0.65451287165097       -1.67316428487211
H            4.62142638691022        1.20719598846073       -0.61782908195260
H            6.33731285343565        1.71331916440463        0.96489328469089
H            8.56150645377489        2.79703354258806        1.03831345580919
H           10.21753319964652       -0.42875528684508       -1.20667790127978
H            7.99388780649483       -1.51225584655116       -1.29976859771842
H            6.45530552252829       -2.57961133250801        0.17524440219655
H            4.26250279593067       -3.69321161168016        0.09894345494646
H            1.71928163471327       -4.35753818067568       -0.07321030210396
H           -0.71476027097171       -4.46879621007918       -0.37144047948233
H           -2.80246571408966       -0.52667070823410       -0.13652913109138
H           -5.23055369538677       -0.59696315140784       -0.57094632314838
H           -4.80941992010158       -4.45871655185649       -2.33213348453419
H           -2.37076084526385       -4.37672483845691       -1.94653056946323
H           -0.85614080766678       -0.26004263195420       -1.13892086075876
H           -0.01921727547566        1.92559299633166       -1.71137377756751
H           -4.08722568835786        2.69097106600765       -3.47525045060612
H           -6.57080375199560        2.60184117662680       -3.31022115729286
H           -7.61470136631043        2.42531333550187       -1.06961370684904
H           -6.25867929956140        2.38080789929888        0.92515535062425
