  85
       -129.57859143
 C         -2.5709298747       -3.7751584280        2.8022130229
 C         -2.2368742135       -2.2940438231        2.9232379567
 C         -3.4920115583       -1.4299623680        2.8404839936
 C         -3.1606713124        0.0593215154        2.8088543477
 C         -4.4176591428        0.9090315395        2.6334544010
 C         -4.0935941781        2.3786777379        2.3338884333
 N         -3.5301454165        2.5475270717        1.0119114199
 C         -2.1526481887        2.6424652605        0.8311791433
 C         -1.2497454176        2.8743966055        1.7990496967
 C          0.2246453524        2.9109520941        1.5229884310
 C          0.5762961642        2.0296925251        0.3587591248
 C          1.6167346589        1.1925017198        0.3887106750
 C          1.9659025602        0.1900105064       -0.6818333412
 C          3.3052452543       -0.4429346750       -0.4189034393
 C          4.5481794453        0.1456377017       -0.4347685516
 C          5.6739868603       -0.6254224907       -0.1337107013
 C          7.0134741107       -0.0206332117       -0.1659330948
 C          7.2272812044        1.2584003684        0.3453332503
 C          8.4831838811        1.8342890746        0.3181834259
 C          9.5301056916        1.1194848798       -0.2336887270
 F         10.7623048193        1.6781388494       -0.2675063343
 C          9.3531012058       -0.1496831271       -0.7530765331
 C          8.0923409745       -0.7136973484       -0.7128658625
 C          5.5155211503       -1.9725216182        0.1944603984
 C          4.2665803372       -2.5658858782        0.2254222641
 C          3.1550473215       -1.7993984600       -0.0866617060
 C          1.7466576481       -2.1405370328       -0.1715193814
 C          1.0685681261       -3.3291419069        0.0533735343
 C         -0.3004371059       -3.3698362062       -0.1415373947
 C         -1.0082760194       -2.2486189830       -0.5817857074
 C         -2.4581715663       -2.2957552033       -0.8164600600
 C         -3.2419887308       -1.1530780219       -0.6458310148
 C         -4.6027396439       -1.1710598669       -0.8816853419
 C         -5.1880583489       -2.3561542192       -1.2862686711
 F         -6.5236046326       -2.3867197738       -1.5140905795
 C         -4.4474274493       -3.5101674264       -1.4637367937
 C         -3.0855016011       -3.4705615011       -1.2314498941
 C         -0.3158031735       -1.0547666881       -0.8024638547
 C          1.0383743376       -1.0002706279       -0.5788667978
 C         -0.3479645719        2.1442040627       -0.7473660495
 C         -1.6399599584        2.4542858028       -0.5316250642
 O         -2.4687863216        2.5439560076       -1.6073926113
 C         -3.8176110446        2.4886419589       -1.3868584954
 C         -4.6232852234        2.4398398505       -2.5128550176
 C         -5.9966951855        2.3455956595       -2.3865362730
 C         -6.5529600906        2.2951159286       -1.1210589449
 C         -5.7529084639        2.3467274929        0.0063976183
 C         -4.3629177011        2.4536445101       -0.0923478215
 H         -1.6679936044       -4.3775380385        2.8661408422
 H         -3.2467386103       -4.0830101807        3.5972290076
 H         -3.0532561017       -3.9728917492        1.8472216187
 H         -1.7268837327       -2.1098600074        3.8711476837
 H         -1.5562344187       -2.0144987045        2.1180457132
 H         -4.0360141301       -1.6915330141        1.9317294420
 H         -4.1413019524       -1.6446299355        3.6922046224
 H         -2.4742379521        0.2459603253        1.9833095004
 H         -2.6491488510        0.3431913473        3.7309511483
 H         -5.0059089349        0.4979802784        1.8133132614
 H         -5.0242103370        0.8604058781        3.5398491532
 H         -3.3869180438        2.7485271017        3.0718208364
 H         -4.9944587054        2.9920290830        2.4144456942
 H         -1.5303576494        3.0666133882        2.8200420683
 H          0.5209106545        3.9446923091        1.2928573286
 H          0.7762989148        2.6078601855        2.4142021561
 H          2.2316666513        1.1467921594        1.2765009201
 H          1.9133360169        0.6534885424       -1.6705134786
 H          4.6590783954        1.1859544194       -0.7041833139
 H          6.4050408647        1.8004904404        0.7879115751
 H          8.6580741735        2.8210376243        0.7172834460
 H         10.1916346189       -0.6767119618       -1.1804063688
 H          7.9375180031       -1.6969635759       -1.1311009282
 H          6.3878117611       -2.5560458451        0.4502318226
 H          4.1630938829       -3.6081417096        0.4881433881
 H          1.5969699024       -4.2120767050        0.3812222244
 H         -0.8328273951       -4.2848832872        0.0678706011
 H         -2.7865205886       -0.2380094710       -0.3067120628
 H         -5.2056313681       -0.2850407177       -0.7633456062
 H         -4.9349011825       -4.4164704685       -1.7869363013
 H         -2.5010330855       -4.3621922102       -1.3968327751
 H         -0.8372186992       -0.1869402792       -1.1660793067
 H         -0.0154479506        1.9364673889       -1.7523585744
 H         -4.1465621685        2.4703080307       -3.4795982916
 H         -6.6204008598        2.3039346979       -3.2646878193
 H         -7.6223388019        2.2115294805       -1.0014783335
 H         -6.2320386012        2.3029047144        0.9688188302
