  85
       -129.49942751
 C          3.4110835583        4.2937955125        2.1826122729
 C          2.9822122971        2.8737191802        2.5286299113
 C          4.1508858569        1.8959543467        2.4408617118
 C          3.6964735484        0.4527910102        2.6403999450
 C          4.8502810542       -0.5323015424        2.4685279974
 C          4.3902070555       -1.9970278937        2.4083096859
 N          3.6834620755       -2.3106125058        1.1889971121
 C          2.2908936737       -2.2901022198        1.1194884454
 C          1.4706971505       -2.0296455464        2.2123443149
 C         -0.0065932044       -2.0909892935        2.1257595529
 C         -0.5211496851       -1.8259999039        0.7310583318
 C         -1.7444775431       -1.1687372263        0.6039031520
 C         -2.1186809973       -0.3382431502       -0.5882224094
 C         -3.4494395956        0.3282327935       -0.3732503696
 C         -4.7014909719       -0.2392851863       -0.3649489079
 C         -5.8160505114        0.5650959041       -0.1105511825
 C         -7.1656033069       -0.0164850946       -0.1257843644
 C         -7.4059129842       -1.2692926548        0.4370220870
 C         -8.6713977649       -1.8239935715        0.4241513079
 C         -9.7019606898       -1.1148369489       -0.1648615840
 F        -10.9439344390       -1.6528534361       -0.1839006309
 C         -9.4992046953        0.1286061636       -0.7345901604
 C         -8.2289374351        0.6717324932       -0.7087931470
 C         -5.6350896917        1.9239517548        0.1534179022
 C         -4.3767362801        2.4969304689        0.1619619591
 C         -3.2764321372        1.6981864812       -0.1085271133
 C         -1.8658107950        2.0147126296       -0.2193628245
 C         -1.1655507788        3.1995870785       -0.0480021642
 C          0.1986844055        3.2163002614       -0.2759498727
 C          0.8815131667        2.0749568160       -0.7086845992
 C          2.3221943526        2.1022278838       -0.9971047073
 C          3.0981301645        0.9503084337       -0.8513762003
 C          4.4492774184        0.9507921702       -1.1363658302
 C          5.0351511413        2.1275090131       -1.5645851348
 F          6.3633121344        2.1411513295       -1.8373454969
 C          4.3027519146        3.2896907375       -1.7199417506
 C          2.9495136692        3.2674837322       -1.4395855514
 C          0.1691111560        0.8836966864       -0.8701758424
 C         -1.1778414157        0.8505884269       -0.5997885011
 C          0.2919381922       -2.1991509246       -0.3147527725
 C          1.6706343992       -2.5065975649       -0.1191025760
 O          2.3624296097       -2.8402129907       -1.2507780157
 C          3.7277050573       -2.7933901048       -1.1842187038
 C          4.4132589615       -3.0212274584       -2.3639857513
 C          5.8004151821       -2.9756387959       -2.3894185140
 C          6.4835188980       -2.6911249141       -1.2274461676
 C          5.7973572761       -2.4580091423       -0.0399942344
 C          4.4078568207       -2.5106990206        0.0147998170
 H          2.5702073622        4.9786408302        2.2619718895
 H          4.1947070284        4.6338197162        2.8563251732
 H          3.7932984380        4.3314196789        1.1650024318
 H          2.5632314254        2.8532205118        3.5370504159
 H          2.2015384729        2.5567999767        1.8358896753
 H          4.6125583939        1.9896770269        1.4574374465
 H          4.9026550054        2.1544424413        3.1897409576
 H          2.9185462031        0.2340993767        1.9098017720
 H          3.2616371011        0.3428223761        3.6362914625
 H          5.3776051149       -0.2886639321        1.5465133758
 H          5.5535853157       -0.4230976137        3.2966156848
 H          3.7475054248       -2.2209252960        3.2575784755
 H          5.2569153314       -2.6599750692        2.4812675466
 H          1.8763451187       -1.7640126920        3.1705172126
 H         -0.3649550424       -3.0914648612        2.4238568136
 H         -0.4475726200       -1.3875754014        2.8385911129
 H         -2.3414859580       -1.0176352202        1.4901617548
 H         -2.0661686118       -0.9191435292       -1.5130626770
 H         -4.8288703438       -1.2896562490       -0.5823265460
 H         -6.5963781332       -1.8067750040        0.9076396960
 H         -8.8665405730       -2.7899125949        0.8629082729
 H        -10.3252086150        0.6515583125       -1.1903591737
 H         -8.0543467484        1.6336648887       -1.1668284379
 H         -6.4983100813        2.5345678395        0.3743288107
 H         -4.2565713214        3.5490799195        0.3729323933
 H         -1.6748683390        4.0993005340        0.2641991877
 H          0.7474210758        4.1298625900       -0.1047011175
 H          2.6440243274        0.0410888532       -0.4949699002
 H          5.0447620841        0.0573313118       -1.0359821416
 H          4.7894562182        4.1890519535       -2.0634640955
 H          2.3718754647        4.1661452372       -1.5880279904
 H          0.6702488898       -0.0004497067       -1.2234356113
 H         -0.0680400161       -2.2146529547       -1.3305420992
 H          3.8416098244       -3.2332344425       -3.2531599638
 H          6.3284096653       -3.1567313648       -3.3116369590
 H          7.5614396848       -2.6418342283       -1.2252306148
 H          6.3759206759       -2.2346090078        0.8391984347
