85
 energy: -129.622232197569 gnorm: 0.000032298434 xtb: 6.7.1 (edcfbbe)
C            9.12636801701641        0.11821624063546        1.24647041011802
C            7.98871167367642        0.94442348111201        1.83687062247204
C            7.05233000111724        0.13379605558413        2.73586705065445
C            6.28221163205394       -0.98386084673571        2.02935339712368
C            5.31004983038253       -0.47007539363452        0.96968390804739
C            4.46025127779409       -1.60968304511214        0.39655169985583
N            3.52140340630455       -1.16369780102130       -0.60855333832615
C            2.24771461473123       -0.74450127588645       -0.22568151241377
C            1.85726995748974       -0.57021785750742        1.04809455657897
C            0.47888826948128       -0.15987266013569        1.45256967586765
C           -0.53212647686358       -0.09144222953735        0.33339593296321
C           -1.82594294889141        0.10033171372295        0.63622618123911
C           -2.97883085847487        0.24315596122453       -0.31176529988828
C           -4.08175816104551       -0.74373830818369       -0.01468880703598
C           -4.02736290800068       -2.11862460515389       -0.03021165041419
C           -5.17322045205468       -2.85072198667098        0.29224065725940
C           -5.14146938615255       -4.32151271948610        0.27827512049469
C           -5.76907658579198       -5.05664982855761        1.28317018667391
C           -5.74512753134769       -6.43889286185617        1.27428573318837
C           -5.08874676858910       -7.08276350256878        0.24234565730712
F           -5.06386458304698       -8.44365375398893        0.22381060520580
C           -4.45648087978550       -6.38758752245363       -0.77116622410616
C           -4.48489937793586       -5.00572656399302       -0.74395956037140
C           -6.35018122881165       -2.17605286054572        0.62198364010475
C           -6.41040051829873       -0.79427471365212        0.63445186455371
C           -5.26958002124459       -0.07288513612140        0.31757378522253
C           -5.02510559860101        1.35656107296505        0.25281041355619
C           -5.85485897057524        2.44145711900070        0.49133171627683
C           -5.33701319330230        3.71776913516634        0.36402947893658
C           -4.00709429703852        3.93121098058032       -0.00361595633399
C           -3.48123012547133        5.29869684118429       -0.13407650508074
C           -2.62908527171632        5.63149397498870       -1.18654369328673
C           -2.12769170011682        6.91298331657277       -1.31841282315122
C           -2.48465789329269        7.86319334674461       -0.38034548998086
F           -1.99243892307774        9.12657405560760       -0.50062565540752
C           -3.32552500670499        7.56994381643581        0.67665285321725
C           -3.82174685631162        6.28470042831166        0.79125763927836
C           -3.17705846501819        2.83393514169582       -0.24876462336582
C           -3.68780277135167        1.56275681686876       -0.12093579184148
C           -0.02101839796832       -0.21388155770482       -1.00298100196853
C            1.26715861770891       -0.50643670653747       -1.27860893492235
O            1.61492563189983       -0.58729560301227       -2.59462384071338
C            2.92603889925539       -0.81654978631445       -2.91704756859983
C            3.25071737272597       -0.76719404539244       -4.26273550618072
C            4.55127929981572       -0.99552968047703       -4.67556144991311
C            5.52263452145613       -1.26136395497676       -3.72722149548041
C            5.20329232441359       -1.30796631358396       -2.38183657689778
C            3.89564613698922       -1.09813862857073       -1.94076338068082
H            9.81381038338215        0.76102657390536        0.70027221575831
H            9.68172593969226       -0.38428139344629        2.03613201128933
H            8.75099775073998       -0.63404185681992        0.55759166671726
H            8.41701850795022        1.75132102931082        2.43737347578521
H            7.41902624644321        1.40982719669399        1.03065303625945
H            7.64296709567011       -0.31033387070609        3.54147048770699
H            6.33341460472257        0.81780907260925        3.19453117037658
H            5.71756476095694       -1.53686448883127        2.78484483243378
H            6.98342877497042       -1.68428010045427        1.57310779861984
H            4.65302485725522        0.28333279156819        1.40870100763093
H            5.85727958165145        0.00600390623929        0.15537582803593
H            3.89466106552520       -2.09510078871240        1.19594777007130
H            5.10515158832820       -2.37229507765630       -0.04701396121602
H            2.53876512827839       -0.70304539338085        1.87167828057220
H            0.12119513429148       -0.84493302600841        2.22924641709941
H            0.54214147898956        0.82739417730236        1.93060937154562
H           -2.10748856703892        0.18091217327646        1.67864950801417
H           -2.64164899127485        0.13577529431943       -1.34539639764468
H           -3.10431522839262       -2.62777902450632       -0.26616825119796
H           -6.26544148930059       -4.54145443881449        2.09139435106050
H           -6.22288628288879       -7.01627561198131        2.05055342879503
H           -3.95783721203022       -6.92599230137880       -1.56217334691794
H           -4.00817489579629       -4.45084701686936       -1.53761785758507
H           -7.23747018849619       -2.74862872675876        0.84958376756529
H           -7.33204913188401       -0.29013885978593        0.88503525588656
H           -6.88762720414321        2.29698690376911        0.77209008552630
H           -5.97911382731647        4.57027328953222        0.53072451889404
H           -2.37053175508031        4.88415371227589       -1.92116279614262
H           -1.47228819630290        7.18113861708639       -2.13250042314827
H           -3.57804851944892        8.33796530675550        1.39118234505716
H           -4.46620850236361        6.03904569349171        1.62146588303497
H           -2.14000208403467        2.98343536835837       -0.51146042538769
H           -0.68534276727552       -0.08121495949246       -1.84286127786409
H            2.46318138976846       -0.55228922984350       -4.96849818743356
H            4.79935346890568       -0.95976225361815       -5.72474918429792
H            6.54448916336647       -1.43181252560580       -4.03135348321901
H            5.99177859475426       -1.50543891078892       -1.67583302144523
