62
 energy: -95.277748927762 gnorm: 0.000052317618 xtb: 6.7.1 (edcfbbe)
C            2.46258113901941       -3.56599225231059        1.48985125495579
C            1.18216067295306       -3.59412967123192        0.96661606900422
C            0.68312034245449       -2.49368556348143        0.27414309877585
C           -0.68313646151150       -2.49368316519117       -0.27416480500903
C           -1.18217756355998       -3.59412054296668       -0.96664800387053
C           -2.46259854229288       -3.56597790970135       -1.48988170737672
C           -3.26518908348996       -2.45066522767473       -1.32820651032492
C           -2.78449911102552       -1.35290082307486       -0.61950836587108
N           -3.59148035507048       -0.22139141013144       -0.42511829978592
C           -4.88805682403764       -0.22467781358673        0.05105646396301
C           -5.67807429160485       -1.28943261352205        0.46213169493640
C           -6.95074225964927       -1.01044844378618        0.92274913133911
C           -7.43197501413418        0.29588885461560        0.98603218760360
C           -6.64152801810963        1.36180361196712        0.60467158120715
C           -5.35816364736236        1.10651281152795        0.13802476187131
C           -4.28365062953263        1.94877773077828       -0.30827577056098
C           -4.14428108551020        3.32330916468915       -0.45442982700892
C           -2.94935259848304        3.82069818850721       -0.93544367966726
C           -1.90795072776019        2.96459911169040       -1.28863457561550
C           -2.02474686210321        1.59420606128979       -1.15525336543625
C           -3.21201931416178        1.08872441023932       -0.64343046310499
C           -1.49644457380570       -1.37988008164262       -0.09848548185066
C            1.49642893387227       -1.37988097817987        0.09847397098852
C            2.78448397618037       -1.35290822164687        0.61949570352205
N            3.59147111426722       -0.22140183485092        0.42511184607699
C            4.88804764847995       -0.22469721752184       -0.05106267765225
C            5.67805293744372       -1.28945656529417       -0.46214962423403
C            6.95072396064928       -1.01048187964882       -0.92276419882932
C            7.43197105347390        0.29585079477780       -0.98603424831158
C            6.64153594389447        1.36177042839263       -0.60466256193329
C            5.35816903132365        1.10648901133330       -0.13801743798752
C            4.28366617707208        1.94876068958647        0.30829469894312
C            4.14431389413791        3.32329176575487        0.45446791799080
C            2.94939137757421        3.82068918282482        0.93548785879923
C            1.90797833124614        2.96459822034309        1.28866545161254
C            2.02475747884634        1.59420546164895        1.15526590262055
C            3.21202448003160        1.08871575440761        0.64343832652917
C            3.26517232003493       -2.45067878071666        1.32818565179879
H            2.83763942415156       -4.41707006345054        2.03909701630870
H            0.55649831235991       -4.46166166042111        1.11295740703983
H           -0.55651518450447       -4.46165087992078       -1.11299919473398
H           -2.83765713909340       -4.41705031945372       -2.03913565582135
H           -4.25521146837554       -2.41941480187213       -1.75733407205822
H           -5.30993032450406       -2.30387573573053        0.43546465561551
H           -7.58563641615466       -1.82335273282881        1.24435974107572
H           -8.43410503760271        0.47266807169605        1.34864617219483
H           -7.00801745202526        2.37555030551414        0.66998131509525
H           -4.95803052012312        3.98546808704155       -0.19814325921297
H           -2.81881046551898        4.88680060258450       -1.05140051321679
H           -0.98967921888941        3.38050131030238       -1.67763597206440
H           -1.21945208479997        0.94040505029455       -1.45374804066936
H           -1.13946815045197       -0.53714568652101        0.47432633554213
H            1.13945245637767       -0.53714058932896       -0.47432901213015
H            5.30989669969846       -2.30389556144657       -0.43549517222062
H            7.58560840925585       -1.82338983555618       -1.24438460652445
H            8.43410335749179        0.47262244885214       -1.34864550321280
H            7.00803774572792        2.37551347785610       -0.66995914763225
H            4.95807094328107        3.98544411515004        0.19818837165400
H            2.81886262373518        4.88679168879832        1.05145918275086
H            0.98971214089423        3.38050664319394        1.67767280038131
H            1.21945460527295        0.94041054647111        1.45375210324389
H            4.25519489405392       -2.41943273944147        1.75731308047417
