62
 energy: -95.167976211420 gnorm: 0.000031232979 xtb: 6.7.1 (edcfbbe)
C            2.68529965727607       -3.77199659648794       -0.94809681839552
C            1.35956343653616       -3.78120605326937       -0.60243290088656
C            0.68044391628289       -2.58191696918138       -0.19946150152535
C           -0.68910612877344       -2.58046379111414        0.18303904178174
C           -1.37243318606627       -3.77937384176872        0.57996911101434
C           -2.69802765896938       -3.76718610394540        0.92607999652711
C           -3.44475851659589       -2.59211461384779        0.89385071418790
C           -2.80066288479251       -1.39847621460433        0.48542686045291
N           -3.53997412316450       -0.21221396159655        0.42208874713728
C           -3.14985584949465        1.01419964555830        0.92255966990400
C           -2.01146960123818        1.35593799839032        1.63957678250608
C           -1.87127914964501        2.67271382052220        2.04540778422918
C           -2.84453503750808        3.62657035879667        1.75762150874449
C           -3.99828730384105        3.28628898042205        1.07282059984325
C           -4.15931603840209        1.97252716603968        0.65370067936282
C           -5.20343838593969        1.27864916607965       -0.04800850311962
C           -6.42138144902904        1.67283590433573       -0.58458276120436
C           -7.19090662995840        0.73009816243075       -1.24473229738874
C           -6.75285131770815       -0.58427567052945       -1.38653533598995
C           -5.54052318923551       -1.00016175126513       -0.86153949478115
C           -4.77786876029965       -0.06801501380678       -0.17129762307062
C           -1.46565320061076       -1.39622528526280        0.15957027324215
C            1.46122486992543       -1.40060582531462       -0.16968616786982
C            2.79631301677441       -1.40595763433709       -0.49514069493223
N            3.54000246689665       -0.22278231137828       -0.42543927473349
C            3.15497954208521        1.00762810205749       -0.92003828449901
C            2.01805553189256        1.35762996585220       -1.63538150344540
C            1.88350810179478        2.67687808412449       -2.03504393202355
C            2.86085354060873        3.62520626905468       -1.74290786031627
C            4.01303004526737        3.27683669836789       -1.05953644902411
C            4.16842617641051        1.96044416787800       -0.64659213277308
C            5.20954557527446        1.25894700121207        0.05197533480032
C            6.42901891859044        1.64555715444299        0.59059589857634
C            7.19452823631342        0.69654975321571        1.24640884967898
C            6.75106595607629       -0.61669720471183        1.38179049430160
C            5.53709908050221       -1.02506098390061        0.85468814140586
C            4.77840202510785       -0.08650861116540        0.16878219177819
C            3.43624622879037       -2.59980715319978       -0.90949099860133
H            3.16096053750063       -4.68855652306616       -1.26891230074813
H            0.80382731575681       -4.70258872582628       -0.67256561244589
H           -0.81999206072229       -4.70309569648576        0.64518237166143
H           -3.17686773856795       -4.68364815655472        1.24238849947436
H           -4.47056253357204       -2.56940350125618        1.22295139945782
H           -1.26391526050867        0.61822019869831        1.88732270651557
H           -0.99055014427960        2.96335859665731        2.59855067422202
H           -2.69850109416741        4.64528698633395        2.08541508017705
H           -4.76004966418379        4.02368581581279        0.87005856040638
H           -6.75665712030284        2.69473573386158       -0.49200871221166
H           -8.14192564934147        1.01813956414978       -1.66800165027720
H           -7.36616070525255       -1.29265498565341       -1.92330157823522
H           -5.19560765494058       -2.01349093399713       -0.99842007854972
H           -1.02719646082338       -0.47808449729865       -0.19911646470809
H            1.02596529825445       -0.48277498195518        0.19366076112166
H            1.26722925741596        0.62441000542522       -1.88649158363215
H            1.00400566453674        2.97386141461617       -2.58676329620015
H            2.71921785998862        4.64600339500288       -2.06611540430452
H            4.77793936239170        4.00999060860380       -0.85327299486011
H            6.76848950250564        2.66650449311511        0.50291892011464
H            8.14666033135853        0.97862642058854        1.67119036907483
H            7.36137554896341       -1.33016332012526        1.91522434334856
H            5.18799062712859       -2.03760213150896        0.98667681425512
H            4.46225426439447       -2.57906592833428       -1.23807879697396
