62
 energy: -95.277763997468 gnorm: 0.000044044922 xtb: 6.7.1 (edcfbbe)
C            2.49338512967416       -3.60288911439689       -1.44159566215268
C            1.20372273609998       -3.63413125062375       -0.94156959658866
C            0.68490926785512       -2.53003738963169       -0.26955780804573
C           -0.69103692195901       -2.52730041733065        0.25298533723943
C           -1.21525451617112       -3.63106425986889        0.92129007489602
C           -2.50468686261163       -3.59519080765014        1.42159139335070
C           -3.29064647552955       -2.46720539713368        1.26535575371964
C           -2.78377940184248       -1.36464711832636        0.58305596599335
N           -3.56624175790098       -0.21382596726843        0.40227396369727
C           -3.16185387704802        1.08187084648781        0.65929228847938
C           -1.97177684946168        1.54765322198152        1.20129753398733
C           -1.82858337989022        2.91083127889093        1.37560958973469
C           -2.84703272164610        3.79818780127396        1.03281143867550
C           -4.04474515401097        3.33979737671714        0.52096096458207
C           -4.21052419792833        1.97319246730200        0.33367303124927
C           -5.29670805552411        1.16598292243161       -0.14789057089179
C           -6.56828313935816        1.46066422429042       -0.62347581721155
C           -7.37664349342083        0.42194466308875       -1.04073383331069
C           -6.92493440027507       -0.89588029165675       -1.00332203258625
C           -5.66444755325284       -1.21396816065478       -0.53455447373097
C           -4.85652476882057       -0.17702244592345       -0.08874698574114
C           -1.48922146404292       -1.40195474604074        0.07965543514258
C            1.48878892702444       -1.40947288985888       -0.09228015623621
C            2.78343256297452       -1.37654559254298       -0.59587221812883
N            3.57025666121852       -0.22937106601704       -0.41118031069136
C            3.16770889887235        1.06876391704088       -0.65871301379298
C            1.97886709718062        1.53997302759435       -1.19878616481903
C            1.83688797146139        2.90467571356725       -1.36171636554456
C            2.85550432920793        3.78831736696616       -1.00992006803396
C            4.05236939903638        3.32467134706266       -0.50081027091740
C            4.21686778305054        1.95639136416127       -0.32484493315297
C            5.30163994894261        1.14419261219020        0.15152322322914
C            6.57291857242108        1.43391672648314        0.63089541481136
C            7.37981047950828        0.39119229276232        1.04095023157743
C            6.92684038981857       -0.92583249400299        0.99269827159720
C            5.66650718358124       -1.23901270614934        0.52018272934307
C            4.86001111586622       -0.19786339867457        0.08166845423475
C            3.28493543628589       -2.47926263913203       -1.28180258456990
H            2.88408263194063       -4.45811745744652       -1.97323100962569
H            0.58688673451687       -4.50736201317791       -1.09107467366442
H           -0.60268226598646       -4.50780553478465        1.06772962832799
H           -2.89954402032829       -4.45020690475346        1.95048705004729
H           -4.28700530461424       -2.42988398216201        1.67899483748328
H           -1.18478039422412        0.86881438896862        1.49269659556604
H           -0.90743771705216        3.29624290723447        1.78843419884361
H           -2.69646175071140        4.85754004319464        1.18151001130969
H           -4.84089696805791        4.02599140943323        0.27275306349619
H           -6.91195078963918        2.48351919221154       -0.66798424615475
H           -8.36989138189965        0.62959177869483       -1.41136263621466
H           -7.57325992139358       -1.68654046102459       -1.35238310923315
H           -5.31883356545189       -2.23664732410254       -0.52768674238932
H           -1.11445280598630       -0.55544762191288       -0.47590008928197
H            1.11834715025842       -0.56318494787389        0.46647716472759
H            1.19183998804717        0.86416919295603       -1.49712207610408
H            0.91658142614317        3.29423964896111       -1.77252505477120
H            2.70575142050972        4.84902816869705       -1.14949377365017
H            4.84872746825773        4.00815016769069       -0.24586700087717
H            6.91747967898672        2.45607099164395        0.68379763176025
H            8.37281414148570        0.59498949514324        1.41436875707718
H            7.57408135616736       -1.71987521698991        1.33607210732926
H            5.32003044535891       -2.26129773675084        0.50503780662024
H            4.28134036382425       -2.44557217391319       -1.69562539442626
