  62
        -95.13055152
 C          2.8931704572       -3.5788869001        1.2708109521
 C          1.5369177898       -3.6733451615        1.1134359442
 C          0.7548777159       -2.5752647462        0.6049451636
 C         -0.6561889603       -2.6230618455        0.5173150398
 C         -1.4066348351       -3.8373435332        0.7138936036
 C         -2.7743125698       -3.8537118744        0.6722670957
 C         -3.5109998750       -2.6938199394        0.4384648241
 C         -2.7996320965       -1.4875793360        0.2213561918
 N         -3.5127233168       -0.2992336636        0.0250105319
 C         -3.2688254850        0.8977267618        0.6655059152
 C         -2.3464250866        1.1986879118        1.6587538372
 C         -2.3258047147        2.4905863190        2.1527128949
 C         -3.2049657892        3.4622720088        1.6811088840
 C         -4.1490340486        3.1610275126        0.7160710023
 C         -4.1897640637        1.8713812388        0.2060200805
 C         -5.0255109798        1.2154362443       -0.7612684009
 C         -6.0792551408        1.6375503435       -1.5584487320
 C         -6.6570787396        0.7290999739       -2.4275216761
 C         -6.1860384419       -0.5784372722       -2.5188889916
 C         -5.1351545986       -1.0219426465       -1.7360594383
 C         -4.5704017050       -0.1241601135       -0.8401397532
 C         -1.4297463881       -1.4612211257        0.2496617242
 C          1.4922344740       -1.4216960437        0.2240107640
 C          2.8507995407       -1.3381313984        0.3860024627
 N          3.5194725428       -0.1577901954        0.0451467862
 C          4.6966484494       -0.0700290956       -0.6658575817
 C          5.4463755070       -1.0765046680       -1.2595968302
 C          6.5908862744       -0.7107312802       -1.9454769792
 C          6.9761917706        0.6231620366       -2.0542583234
 C          6.2160977175        1.6341521946       -1.4932938384
 C          5.0647356400        1.2917582474       -0.7996771605
 C          4.0451734267        2.0548496996       -0.1342688639
 C          3.8519268206        3.4129064611        0.0744428365
 C          2.7396064670        3.8216688924        0.7880257747
 C          1.8419393103        2.8943071448        1.3111901802
 C          2.0161784591        1.5353594907        1.1193888820
 C          3.1098816768        1.1188032678        0.3721000617
 C          3.5877116742       -2.4193208696        0.9312309354
 H          3.4430583149       -4.4165321981        1.6761975124
 H          1.0431963661       -4.5845841856        1.4066088050
 H         -0.8813477248       -4.7638336095        0.8745576700
 H         -3.3019840211       -4.7842284464        0.8281715606
 H         -4.5873055138       -2.6914388337        0.4803262108
 H         -1.6772055498        0.4464342728        2.0461651137
 H         -1.6174668456        2.7478835432        2.9259159353
 H         -3.1546389422        4.4616724332        2.0868306205
 H         -4.8444556376        3.9096125865        0.3685278416
 H         -6.4346027357        2.6553189641       -1.5035092653
 H         -7.4793319661        1.0384413108       -3.0550462492
 H         -6.6449762668       -1.2583350580       -3.2207892606
 H         -4.7573862149       -2.0282827290       -1.8296858419
 H         -0.9420409087       -0.5186447933        0.0652083863
 H          0.9899750513       -0.5955897825       -0.2512260341
 H          5.1388389228       -2.1090663931       -1.2018455337
 H          7.1936586661       -1.4753997451       -2.4119351166
 H          7.8774009307        0.8695122388       -2.5956361729
 H          6.5069621831        2.6684632320       -1.5959712103
 H          4.5582007444        4.1321132195       -0.3113585888
 H          2.5675689454        4.8745209641        0.9539662034
 H          0.9914810213        3.2416784760        1.8780223104
 H          1.3291410892        0.8242054917        1.5498300924
 H          4.6421438009       -2.3171207573        1.1253466842
