64
 energy: -98.678007826985 gnorm: 0.000068031150 xtb: 6.7.1 (edcfbbe)
C            7.33171921887330       -3.04187562687528       -1.85300928267150
C            6.06098309784425       -3.40270766613285       -1.40982909869131
C            5.23750201844072       -2.49953995908244       -0.76582372032706
C            5.71228590532808       -1.20907887207710       -0.57809231004743
C            7.01012847790273       -0.84077379473154       -1.00263167833571
C            7.81900747760698       -1.76679316305492       -1.64815230586915
C            7.19268813718196        0.52916575973214       -0.61392214079086
C            8.23584946216063        1.43402221023682       -0.76091654847954
C            8.07377044924928        2.71550617416429       -0.27422267912716
C            6.88455453287575        3.10367706242186        0.33939863847122
C            5.83264624141580        2.22215442768583        0.49710159775364
C            5.99812768177283        0.92559236926421        0.03080378752315
N            5.11296082900132       -0.13298947319338        0.04403660590552
C            3.82417745039375       -0.11307751308127        0.59681003091641
C            3.62511686781442        0.33371645771020        1.90052986828155
C            2.35549617838489        0.37515205147371        2.43450091843116
C            1.24814188014317       -0.03747600326673        1.68815825561755
N            0.00000905700307        0.00004555286373        2.28160508311018
C           -1.24812999135262        0.03754731056326        1.68817007712112
C           -2.35547519766517       -0.37506952462462        2.43453238112978
C           -3.62510077160986       -0.33365482756889        1.90057155120076
C           -3.82417611787265        0.11310837232228        0.59684351439312
N           -5.11296403191440        0.13299648553692        0.04407930790624
C           -5.71229556793691        1.20906044710473       -0.57808873694432
C           -5.23752277103518        2.49951909764629       -0.76586333510745
C           -6.06100537267030        3.40265340965391       -1.40991401569180
C           -7.33172487062693        3.04178613190230       -1.85311155052709
C           -7.81899949799525        1.76670497994507       -1.64821853053986
C           -7.01012579243259        0.84072362449339       -1.00263772845652
C           -7.19269419118954       -0.52918884200966       -0.61383745921436
C           -8.23586156577872       -1.43404756149703       -0.76077447001481
C           -8.07377431890115       -2.71551484820484       -0.27403972959914
C           -6.88454640429309       -3.10366585571782        0.33957132407643
C           -5.83263671191020       -2.22213629249629        0.49722924039016
C           -5.99812369883984       -0.92559221302169        0.03088426003890
C           -2.72905737314544        0.54956142103247       -0.14280102588645
C           -1.46002041192452        0.52784706054123        0.39838813647811
C            1.46001734248762       -0.52780564552992        0.39838518163150
C            2.72904920487558       -0.54953892778695       -0.14281550928346
H            7.94345553951718       -3.77639651603603       -2.35550439485768
H            5.71297448744242       -4.41259159435773       -1.57062579264053
H            4.26128971080101       -2.79376383962707       -0.41065593690754
H            8.80949347284845       -1.49105567051755       -1.97767605313240
H            9.15159808032691        1.13733947467756       -1.24984947205736
H            8.87380267971272        3.43378412892974       -0.37562499461096
H            6.78163998487093        4.11775261215126        0.69707229473356
H            4.90864036767552        2.53680092838881        0.95865394264264
H            4.47325529208084        0.63987814695778        2.49415693535250
H            2.21071306579215        0.72353779713279        3.44755002488325
H            0.00001431544990        0.00005566201601        3.29116645042552
H           -2.21068122935937       -0.72342776184904        3.44758941796009
H           -4.47323251940003       -0.63980033372745        2.49421673058777
H           -4.26130234497183        2.79375697031618       -0.41072835045473
H           -5.71299141239228        4.41252681303951       -1.57077111430432
H           -7.94347222219351        3.77629044847295       -2.35562015708912
H           -8.80950292852251        1.49096228550301       -1.97768787679426
H           -9.15159184446152       -1.13740198890463       -1.24976399649544
H           -8.87379532362542       -3.43380695293966       -0.37543212376240
H           -6.78163588636877       -4.11772013426928        0.69730597917553
H           -4.90863925535821       -2.53675582816617        0.95881658075789
H           -2.87681291025431        0.90758289997713       -1.15053677702474
H           -0.63094066704795        0.91204973098405       -0.17421095721892
H            0.63093073871610       -0.91201967295013       -0.17419636132115
H            2.87679495707018       -0.90759040154709       -1.15054190263260
