  52
        -79.22257956
 O          7.2599764613       -0.7721563132       -1.2689091157
 C          5.9652190067       -1.3113109756       -1.1344178059
 C          5.0696711148       -0.5336725847       -0.1995951231
 C          5.6131194970        0.1676017761        0.8706471184
 C          4.7851733188        0.8747232114        1.7269359321
 C          3.4197282332        0.8901667966        1.5250947369
 C          2.8509171272        0.1855483253        0.4588945768
 C          1.4078758749        0.1889321642        0.2392996016
 C          0.6994577063       -1.0493808394        0.1644976863
 C          1.3338760603       -2.2743096713        0.3870247394
 C          0.6581184713       -3.4840114387        0.2297728773
 C         -0.6629368528       -3.4846567164       -0.1593457812
 C         -1.3358971217       -2.2754351474       -0.3308989577
 C         -0.6993966068       -1.0493013041       -0.1203198993
 C         -1.4039886784        0.1900729602       -0.2081022939
 C         -2.8436759506        0.1909877326       -0.4493862877
 C         -3.3897456781        0.8920387270       -1.5299368342
 C         -4.7505515698        0.8768253209       -1.7599707850
 C         -5.5967305115        0.1743148252       -0.9175717968
 C         -5.0765671172       -0.5201848759        0.1683411339
 C         -5.9897704554       -1.2920817328        1.0907534444
 O         -7.3013596033       -0.7833098828        1.1601626176
 C         -3.7099874256       -0.5098929251        0.3931401279
 C         -0.7065615545        1.4283391066       -0.0649872525
 C         -1.3777768260        2.6538329949       -0.0559637343
 C         -0.6859012457        3.8634534883       -0.0017076233
 C          0.6906210930        3.8633168507        0.0378783080
 C          1.3827140160        2.6537126887        0.0892623220
 C          0.7116660744        1.4280315556        0.0982756659
 C          3.6990526691       -0.5227176285       -0.3962944021
 H          7.1836118238        0.1363119119       -1.5829850840
 H          5.4804037388       -1.4053053639       -2.1177049940
 H          6.1164359535       -2.3209862213       -0.7366012586
 H          6.6815244838        0.1511752239        1.0261008538
 H          5.2105824320        1.4126294876        2.5614889204
 H          2.7745155876        1.4211127285        2.2095703487
 H          2.3684862000       -2.2885119062        0.6928617922
 H          1.1818864029       -4.4122591126        0.4017743877
 H         -1.1888067786       -4.4136347034       -0.3209339527
 H         -2.3699383275       -2.2910655891       -0.6383964372
 H         -2.7298468573        1.4196409854       -2.2028945437
 H         -5.1582046738        1.4105645326       -2.6059800745
 H         -6.6613229361        0.1559348902       -1.0974290799
 H         -6.0999903374       -2.3168603243        0.7188160108
 H         -5.5413543793       -1.3443975551        2.0942685373
 H         -7.2591208358        0.1375977748        1.4432877349
 H         -3.3044211658       -1.0290537212        1.2502122384
 H         -2.4562015942        2.6682943705       -0.0874477543
 H         -1.2363817745        4.7922179084       -0.0054147287
 H          1.2411819344        4.7920555210        0.0430747303
 H          2.4611400315        2.6686677902        0.1184923534
 H          3.2748806768       -1.0471633595       -1.2411304193
