74
 energy: -116.562932650263 gnorm: 0.000053355268 xtb: 6.7.1 (edcfbbe)
C            0.42205352026521       -3.40409694874999        0.37947339664269
O            1.21199413827852       -2.23709183713563        0.33273561196869
C            0.59330996012568       -1.02315153528374        0.21815364825816
C           -0.77717357077759       -0.86144505841294        0.13954927955578
C           -1.37305159757268        0.39710392260910        0.02896382007321
C           -2.80236734946138        0.58627169373131       -0.07179836060304
C           -3.74195416293129       -0.37368055077452       -0.11904678807749
C           -5.17085893434693       -0.16591465236796       -0.23254209135462
C           -5.76386929758546        1.09749884902261       -0.33520412761685
C           -7.13107891286475        1.23681681301089       -0.44156598726595
C           -7.95368345041372        0.11283650440309       -0.45096603714011
N           -9.34322863989870        0.26171745051910       -0.57679127895893
C           -9.98977334531107        1.09269645172168       -1.44847224394403
N          -11.28228710176754        1.02016940276779       -1.39754505584938
C          -11.55373749723869        0.09045386641623       -0.42172139324406
C          -12.77177327040225       -0.36883116396762        0.06686806579139
C          -12.74373061903321       -1.30149256566724        1.08235730862885
C          -11.53953681863329       -1.76584304221968        1.61623019482279
C          -10.31906452539262       -1.32573155091871        1.14434260873720
C          -10.33805531671462       -0.40450503645659        0.10804338378538
C           -7.38307057926511       -1.15315297258553       -0.35817097146199
C           -6.01479040644848       -1.28292700624331       -0.24869726430374
C           -0.52994049916187        1.53199696278567        0.00584443666295
O           -1.14674852937564        2.74718076888749       -0.10553381271881
C           -0.35551094652653        3.91362018658395       -0.14362280116369
C            0.84086090373953        1.37009605295790        0.08388043418593
C            1.43604182375831        0.11124234126364        0.18878668394743
C            2.86805242391649       -0.07772115819285        0.24526985249245
C            3.79823361462221        0.87707746354280        0.41507537008976
C            5.23201382992399        0.67292998624166        0.45081971607650
C            5.84283379361981       -0.55527608774951        0.17515732581202
C            7.21382133280065       -0.69462994480061        0.20958938329594
C            8.02239140218799        0.39735401976505        0.51479059628291
N            9.41854792361937        0.26151114608928        0.55022714508317
C           10.25566085931975        0.75662851877949        1.51058592068386
N           11.50563202770392        0.46637288972287        1.33185136863374
C           11.54395458386115       -0.26472491740786        0.16802230997625
C           12.62445045503552       -0.81853441467815       -0.50978902958817
C           12.36636393232766       -1.49177599285168       -1.68537059484653
C           11.07033582373326       -1.60695532029386       -2.19308920657064
C            9.98298322694922       -1.06742136786182       -1.53550904885043
C           10.23093429653423       -0.40859132672339       -0.34074003778888
C            7.43384597698511        1.62613686240149        0.80013358723970
C            6.06175062552089        1.75586788287158        0.76544541999005
H           -0.16120183933260       -3.53069472651119       -0.53773424015437
H            1.12869859255067       -4.22744374390333        0.47406180305967
H           -0.24665904995513       -3.39979342938882        1.24564364718916
H           -1.41900500720679       -1.72500655143528        0.16326330619114
H           -3.09790269902575        1.62369520494281       -0.11856755241393
H           -3.45023941040926       -1.41424149755109       -0.07432266105289
H           -5.14994686836721        1.98394059494136       -0.32842769617405
H           -7.57375903692594        2.22004854811552       -0.50842946566983
H           -9.45254166898462        1.72581828435901       -2.12896014757794
H          -13.69857365728706        0.00563402799244       -0.33852412703040
H          -13.67283369198316       -1.67856703831774        1.48396862580923
H          -11.56530302911503       -2.48510421581406        2.42152164036166
H           -9.39273529206351       -1.67646135531099        1.57340457969389
H           -8.01387275611255       -2.02866700491854       -0.39192133391849
H           -5.58481463626372       -2.27189670896791       -0.18042132844291
H            0.22640430781462        4.03304223263919        0.77530754053005
H           -1.06120597213001        4.73836671531646       -0.23303300962120
H            0.31455542682023        3.91486480284380       -1.00878133424203
H            1.48512936500043        2.23159148016232        0.04682414490791
H            3.17245271371738       -1.10979847357389        0.15395322598005
H            3.49265816892377        1.90501558494784        0.55700756465346
H            5.23901535511597       -1.41468154389182       -0.06916242018067
H            7.66749027371533       -1.65463725655653        0.01395122049682
H            9.88561480931644        1.31527128698820        2.34936354905655
H           13.62514144304432       -0.71202509726664       -0.12154575583572
H           13.18391126042784       -1.93367126517566       -2.23589902180516
H           10.91645787011182       -2.12918327785168       -3.12585390935661
H            8.98649760669854       -1.14611316867139       -1.94285483815563
H            8.05783377902880        2.47661301083453        1.03304703052899
H            5.61831931816606        2.71675419049590        0.98347667442492
