74
 energy: -116.500117546647 gnorm: 0.000051955423 xtb: 6.7.1 (edcfbbe)
C            0.47152539815624       -3.34368219400197        0.29633000799019
O            1.23277646057186       -2.15618575184576        0.27189610944438
C            0.59175909243863       -0.96090220703417        0.18916442819055
C           -0.76232950166738       -0.81693494219306        0.11666590763779
C           -1.39299278479047        0.45392607179330        0.03781367482575
C           -2.77620226222201        0.63658851531050       -0.04523058905301
C           -3.74385642967550       -0.35481484086306       -0.10627272069182
C           -5.14207850655617       -0.15047955973881       -0.18835536568063
C           -5.75693504925620        1.12276100532120       -0.16799360089025
C           -7.11932550103456        1.25929492022148       -0.25007742340069
C           -7.94367471194951        0.13394853599139       -0.35616025312396
N           -9.32955970685951        0.28916689003437       -0.45558320415244
C           -9.98012417001353        1.24488597907733       -1.18814710271129
N          -11.27241998722400        1.15854925992073       -1.15354452607391
C          -11.54162662431947        0.08557637149972       -0.33759502443527
C          -12.75989057319505       -0.44847971565391        0.06623966389692
C          -12.73336646032633       -1.53059251465243        0.92126909629531
C          -11.52965157751889       -2.06700388561199        1.38277099921373
C          -10.30857801005158       -1.55238337614134        0.99360032363953
C          -10.32453731821066       -0.48164985010827        0.11228613289569
C           -7.36040006126300       -1.13663074673810       -0.38782855551187
C           -5.99819404193120       -1.27141475385318       -0.30179775929656
C           -0.52301050968599        1.61353376805658        0.04596902968803
O           -1.16452683904139        2.80944315964921       -0.02261021194698
C           -0.40360096625281        3.99726376077260       -0.03918441489088
C            0.83129148619096        1.46925975681651        0.11158647407951
C            1.46255100644280        0.19815565697787        0.18134357778660
C            2.84711925463919        0.01580017052161        0.23987154300838
C            3.81634366749198        1.00740925936485        0.22178449998404
C            5.21664717000693        0.80769125220772        0.27127189974034
C            5.83156411746012       -0.46060298188161        0.38284995823591
C            7.19677747723053       -0.59354169482823        0.41500318964660
C            8.02302458438648        0.53163721793590        0.33284784163583
N            9.41483069954045        0.40243634441282        0.36838936018504
C           10.28129108321110        1.21007976234191        1.05376443520631
N           11.52694791800823        0.86846019993590        0.95062893012907
C           11.53245912479416       -0.23656887547255        0.13295805399741
C           12.59626710910430       -1.00022704353202       -0.33369979442982
C           12.30815678506831       -2.05376776364260       -1.17619701558430
C           10.99778531430945       -2.34221009030980       -1.56277132134505
C            9.92654028763795       -1.59748735012317       -1.11009968731880
C           10.20409037214283       -0.55112193581646       -0.24330789847331
C            7.43985217114617        1.79972415931238        0.23834839217239
C            6.07537471249608        1.93081811565066        0.20802458578759
H           -0.11169033954845       -3.46120994607905       -0.62166232776553
H            1.19641669112073       -4.15280197896648        0.37171117363662
H           -0.19577934698013       -3.36987611433501        1.16282049361006
H           -1.39786657386601       -1.68522467020617        0.12204784576472
H           -3.09990413147731        1.66585559634044       -0.07494757629301
H           -3.42929117610436       -1.38891950273954       -0.10515408363303
H           -5.14920024406476        2.00846099615314       -0.07567993055518
H           -7.56869159569720        2.24128292020433       -0.21556888029697
H           -9.44702093429787        1.97938735542883       -1.76110127545183
H          -13.68603667293454       -0.01703035801845       -0.27959439975369
H          -13.66281016259273       -1.96968554578643        1.25287747253042
H          -11.55527581957174       -2.90335413976846        2.06562038043355
H           -9.38500456065579       -1.96113666577789        1.37407141532951
H           -7.98797083944995       -2.00704123609552       -0.50568309591898
H           -5.56103619107632       -2.25896447447367       -0.33425381318232
H            0.18500530253939        4.10561809097266        0.87648272885027
H           -1.12899979419985        4.80698520708834       -0.10216996407420
H            0.25855087060143        4.03234062185794       -0.90932363513191
H            1.46601754878985        2.33809716719348        0.11324048489929
H            3.17121478246075       -1.01223936412899        0.29609014216645
H            3.50206750119727        2.03945593330993        0.15548758403962
H            5.22025797651764       -1.34566862564503        0.45691934888526
H            7.64360961217345       -1.56987532280853        0.52863239094213
H            9.93637269652126        2.03604090764159        1.64614703393627
H           13.60762321058155       -0.76055519617051       -0.04528843159216
H           13.11226940953424       -2.66661974026632       -1.55620935164800
H           10.81849903413219       -3.16623476240901       -2.23747789838660
H            8.91995261924950       -1.81702855079260       -1.43133266745258
H            8.07374443154273        2.67195503529444        0.17050331066354
H            5.63943066435548        2.91581157492486        0.12422324218730
