  74
       -116.44857308
 C          0.4938937209       -3.3288514174        0.3322225063
 O          1.2461252425       -2.1399079917        0.3097119484
 C          0.5988225245       -0.9500405292        0.2103483035
 C         -0.7548224927       -0.8138478555        0.1234866578
 C         -1.3899690961        0.4527882581        0.0210552043
 C         -2.7722662165        0.6279771981       -0.0805514351
 C         -3.7363519893       -0.3679116941       -0.0991362190
 C         -5.1330675975       -0.1723002071       -0.2088407959
 C         -5.7465926488        1.0970156302       -0.3148223282
 C         -7.1078455438        1.2257933651       -0.4165657720
 C         -7.9331733605        0.0962670507       -0.4144442627
 N         -9.3162610728        0.2398459878       -0.5257240749
 C         -9.9739720573        1.1201700889       -1.3444279896
 N        -11.2637819854        1.0282373132       -1.2981272778
 C        -11.5260713931        0.0375468498       -0.3832882724
 C        -12.7395747756       -0.4606635564        0.0750136025
 C        -12.7045380408       -1.4543470081        1.0308890257
 C        -11.4973073950       -1.9377802474        1.5378540313
 C        -10.2802147193       -1.4582797955        1.0955271102
 C        -10.3050746636       -0.4785337121        0.1148623151
 C         -7.3503671046       -1.1718151871       -0.3242347674
 C         -5.9891239584       -1.2984725430       -0.2229200696
 C         -0.5267133938        1.6165187658        0.0212764041
 O         -1.1747213935        2.8064166456       -0.0704449762
 C         -0.4237278421        3.9964062103       -0.0803427548
 C          0.8271575114        1.4802797521        0.1071497066
 C          1.4627239330        0.2131264345        0.1997979630
 C          2.8464959801        0.0351199644        0.2719642852
 C          3.8142615460        1.0276246268        0.2719923231
 C          5.2133398411        0.8234520448        0.3186202412
 C          5.8230809533       -0.4501664911        0.3871962932
 C          7.1871186999       -0.5898717789        0.4097349331
 C          8.0185131243        0.5336369221        0.3629066773
 N          9.4064280141        0.3952489795        0.3832784763
 C         10.2872373947        1.1761602187        1.0846012057
 N         11.5253932867        0.8192171112        0.9671462425
 C         11.5140348502       -0.2634600299        0.1216754531
 C         12.5652379343       -1.0280470238       -0.3695566070
 C         12.2595153546       -2.0557138766       -1.2371584846
 C         10.9446985893       -2.3161040156       -1.6262918783
 C          9.8851689870       -1.5699309622       -1.1496143008
 C         10.1800961797       -0.5518660217       -0.2559949680
 C          7.4401340132        1.8065426149        0.3165008377
 C          6.0765872637        1.9440819948        0.2939038443
 H         -0.0799599802       -3.4571905724       -0.5909981516
 H          1.2210532355       -4.1345595245        0.4199866361
 H         -0.1841034923       -3.3571715251        1.1910118261
 H         -1.3867491852       -1.6852854547        0.1293846143
 H         -3.0990349262        1.6537229058       -0.1522836982
 H         -3.4209913429       -1.3993932526       -0.0260257277
 H         -5.1369398151        1.9860073509       -0.3090661155
 H         -7.5564810302        2.2067027181       -0.4790668956
 H         -9.4444634310        1.7986310492       -1.9855137555
 H        -13.6686458014       -0.0682517272       -0.3056351938
 H        -13.6299617311       -1.8629064789        1.4083309165
 H        -11.5161360904       -2.7030080826        2.2993075285
 H         -9.3530955932       -1.8234793374        1.5102385994
 H         -7.9788293274       -2.0485491083       -0.3610249900
 H         -5.5515999662       -2.2844351253       -0.1604419344
 H          0.1487377419        4.1162600480        0.8448688232
 H         -1.1516051082        4.8022088130       -0.1611283071
 H          0.2555337010        4.0340105405       -0.9377858199
 H          1.4591369754        2.3516965358        0.1043888445
 H          3.1721371083       -0.9919995098        0.3276210758
 H          3.5009374852        2.0612600463        0.2255284960
 H          5.2076665010       -1.3340578844        0.4324434616
 H          7.6303775909       -1.5710066743        0.4890101925
 H          9.9542983366        1.9899665555        1.6998960503
 H         13.5802701772       -0.8093032801       -0.0799875634
 H         13.0532274338       -2.6692875469       -1.6365120556
 H         10.7518889693       -3.1194791086       -2.3214904835
 H          8.8745691496       -1.7661831724       -1.4737459133
 H          8.0774414558        2.6780475243        0.2805972235
 H          5.6433651864        2.9330200156        0.2495027681
