74
 energy: -116.561201322999 gnorm: 0.000056857707 xtb: 6.7.1 (edcfbbe)
C            1.06396010904535        4.01430012746494       -0.01701893793683
O            1.64998132860993        2.73191085063654       -0.01076325728939
C            0.83718737709444        1.63409810882379        0.04523849192242
C           -0.54174737194910        1.69359348976206        0.11209744212745
C           -1.34942123935020        0.55120031203046        0.15790433186578
C           -2.78143494442588        0.75757311064452        0.18665363624813
C           -3.74563065634939       -0.14242773587836       -0.06622388119984
C           -5.17004476249113        0.13019059034109       -0.07019456703675
C           -5.74064898953715        1.26212501902968        0.52076751537758
C           -7.10242424969986        1.47567406117205        0.48411175001268
C           -7.93947408022699        0.56354447187688       -0.15407455613932
N           -9.32127974383333        0.80075331047982       -0.20889481856613
C           -9.92043761667431        2.00099065662069       -0.47233281443432
N          -11.21466193972756        1.95709479319665       -0.50752518155644
C          -11.53868169448522        0.64765540054781       -0.24163082091609
C          -12.78261182188055        0.03454346044522       -0.14156747475471
C          -12.81113009731037       -1.31118871370712        0.15824769658771
C          -11.63740635860819       -2.03735780517484        0.37152206354142
C          -10.39207617284745       -1.44890747287846        0.27620308994532
C          -10.35284461519907       -0.10191688476174       -0.05165630247524
C           -7.38998392415287       -0.56870521721989       -0.74902371855336
C           -6.02891530220427       -0.78218330291527       -0.69325176723963
C           -0.70818762453621       -0.70746288945826        0.17023865859472
O           -1.49522400892380       -1.82065847059054        0.25278639043909
C           -0.88472405281049       -3.08531390081735        0.38985025634942
C            0.67377228775768       -0.76539139816185        0.11162224674261
C            1.47588437691258        0.37431021597095        0.04016730051999
C            2.91717408820877        0.31560457417117       -0.05957155527020
C            3.68958939919599       -0.77021390690243        0.11222304111824
C            5.13223244810402       -0.81779431852242       -0.01212967432388
C            5.89735933188085        0.24094755081580       -0.51301697862960
C            7.26817808098863        0.14258936699085       -0.62110122996299
C            7.92229897579383       -1.02025480941207       -0.22151559193851
N            9.31615114090788       -1.12957719356107       -0.33731485567904
C           10.00434960765317       -2.21481036213073       -0.80391565466234
N           11.28909999661665       -2.05480738781739       -0.84909989774168
C           11.51181580547665       -0.78426959096046       -0.37295299165188
C           12.70340754172976       -0.09349200284702       -0.18235316645541
C           12.62904040720844        1.17992623210736        0.34171857688346
C           11.40530422696961        1.75883357259831        0.68490386330818
C           10.21037776141201        1.09193353024594        0.50231033279767
C           10.27403057641924       -0.18009866117373       -0.04640526354590
C            7.17767945882682       -2.08806782993007        0.27191147683641
C            5.80619730327938       -1.98469797300587        0.36703812416311
H            0.49944610402337        4.20103200306336        0.90153000546872
H            1.89732800507733        4.71301750127766       -0.07560153748077
H            0.41247119320285        4.15309948701704       -0.88524209217605
H           -1.03959295210370        2.65051162325562        0.11337936643224
H           -3.06810533888911        1.78191285211144        0.39030621998798
H           -3.47205076403070       -1.15043990748381       -0.33539974597468
H           -5.11510461177392        1.97484070927951        1.03491632791079
H           -7.52910427855965        2.34561595616150        0.96193307490103
H           -9.34767219988787        2.88948299458443       -0.65932522420538
H          -13.68567989370693        0.60528496241176       -0.29058096040341
H          -13.76147191912552       -1.81784207685824        0.24106056363918
H          -11.70698992448928       -3.08587293078536        0.62100666371488
H           -9.49147762061842       -2.01432361579984        0.46113023426574
H           -8.03110660160824       -1.26671988759721       -1.26578412851024
H           -5.61240643487399       -1.66380140314773       -1.15850449531501
H           -0.30600890382692       -3.35140120060172       -0.50014481306454
H           -1.70655141216431       -3.79035788736380        0.50784717328136
H           -0.24311367760925       -3.12652355598404        1.27500625848273
H            1.16351896769896       -1.72368338466993        0.09924777366655
H            3.37583573510234        1.26851530881237       -0.27876806850934
H            3.23650908691304       -1.71323378628065        0.38723008915527
H            5.41336421884498        1.14807922355515       -0.83848434998217
H            7.83971116087530        0.95831538880980       -1.03765603094473
H            9.50215907693232       -3.10722043373090       -1.12614588206231
H           13.64664451477166       -0.55240048255105       -0.43372774682030
H           13.53666662971902        1.74324856100510        0.50155739805989
H           11.39473045666727        2.75277468253300        1.10737588079603
H            9.27082969913400        1.53987834412897        0.78793526891963
H            7.68010873100501       -2.99127898798011        0.58591265697036
H            5.24103759040809       -2.82030603532453        0.75400679235571
