  51
  -80.2756322802000       0.237395045387285      !
 C          6.0876667713        0.0082284274       -0.0032816890
 C          5.3988836662        0.0835458255       -1.2026626249
 C          4.0153186516        0.0804714903       -1.2091362910
 C          3.3190447417        0.0030294115       -0.0096005697
 N          1.8953414567        0.0004622863       -0.0147194879
 C          1.2233023376        1.2091861478       -0.0295112702
 C          1.9351670109        2.4120123635       -0.0281333092
 C          1.2760576678        3.6241176873       -0.0527938915
 C         -0.1073191396        3.6668081572       -0.0828050861
 C         -0.8190574129        2.4810253966       -0.0791125651
 C         -0.1730685846        1.2548278669       -0.0503269462
 C         -1.0056420758       -0.0048226865       -0.0219542741
 C         -2.0360587912       -0.0008675209       -1.1349641972
 C         -1.8159863016       -0.0019316032       -2.4951651575
 C         -2.9141798809        0.0030836416       -3.3446881566
 C         -4.2077077995        0.0098174745       -2.8413811591
 C         -4.4383101605        0.0105961794       -1.4756231011
 C         -3.3436853610        0.0046556049       -0.6263351997
 C         -3.2611609769        0.0010156575        0.8216546573
 N         -4.2378081998        0.0037596730        1.7149223763
 C         -3.8411009560       -0.0037865938        2.9841227738
 C         -2.5026184242       -0.0145208536        3.3505276627
 N         -1.5153130727       -0.0158666492        2.4545684390
 C         -1.9011067135       -0.0077466590        1.1979726676
 C         -0.1686446733       -1.2606708873       -0.0607030344
 C         -0.8104609388       -2.4887510979       -0.1024526436
 C         -0.0945584046       -3.6717031975       -0.1267090940
 C          1.2889333973       -3.6242117339       -0.1100644054
 C          1.9438571913       -2.4102658200       -0.0725525563
 C          1.2274933110       -1.2103455844       -0.0443871557
 C          4.0089113249       -0.0718807022        1.1931938302
 C          5.3927671155       -0.0695485493        1.1924496337
 H          7.1671628679        0.0104568608       -0.0008322550
 H          5.9393920334        0.1437425537       -2.1354364789
 H          3.4663900710        0.1387684800       -2.1375768356
 H          3.0136584346        2.3917386119       -0.0038111990
 H          1.8484678785        4.5397252026       -0.0484598436
 H         -0.6271950828        4.6120550883       -0.1037780040
 H         -1.8992357621        2.5032948159       -0.0989763025
 H         -0.8107047756       -0.0079919238       -2.8899736487
 H         -2.7596642816        0.0015907017       -4.4136254952
 H         -5.0438148470        0.0144852759       -3.5249366212
 H         -5.4386860889        0.0157584017       -1.0718444034
 H         -4.6296321302       -0.0007245576        3.7238648695
 H         -2.1983738555       -0.0211949362        4.3875957995
 H         -1.8906132745       -2.5141360942       -0.1172782737
 H         -0.6109164045       -4.6186565360       -0.1570285003
 H          1.8644761229       -4.5377007849       -0.1274671889
 H          3.0226034301       -2.3857419507       -0.0630210267
 H          3.4538951702       -0.1318383187        2.1174446046
 H          5.9294623180       -0.1272726323        2.1275313631
  51
  -80.2753304587000       0.172490067877388      !
 C          5.9394110022        0.0379234748        0.9239829211
 C          4.9876571052        0.2281377213        1.9122152423
 C          3.6412706963        0.2081220029        1.5931035898
 C          3.2470011299       -0.0006390974        0.2782181112
 N          1.8603702833       -0.0102187163       -0.0378604930
 C          1.2160409086        1.1974759706       -0.2387633219
 C          1.9460762550        2.3871425198       -0.2989656976
 C          1.3134434732        3.5926668646       -0.5264731341
 C         -0.0578288900        3.6387349814       -0.7091124782
 C         -0.7886361241        2.4653042841       -0.6495518127
 C         -0.1695932786        1.2477770820       -0.4170865939
 C         -1.0046736526       -0.0020618038       -0.2737919643
 C         -2.2099470776       -0.0003020802       -1.1883474200
 C         -2.2317992309        0.0048668299       -2.5667452072
 C         -3.4616957491        0.0058527473       -3.2112347235
 C         -4.6476652566        0.0010000847       -2.4897650115
 C         -4.6359182257       -0.0035691414       -1.1046521959
 C         -3.4098266134       -0.0032547012       -0.4595605806
 C         -3.0778197673       -0.0032381613        0.9519597298
 N         -3.8831557820       -0.0016645485        2.0019825379
 C         -3.2709217977        0.0009610866        3.1823669484
 C         -1.8893016066        0.0018835729        3.3099685903
 N         -1.0735443575        0.0013940734        2.2553287204
 C         -1.6737481502       -0.0011942249        1.0859829245
 C         -0.1751336407       -1.2571319339       -0.4125466033
 C         -0.8035957801       -2.4717924596       -0.6347112026
 C         -0.0849157188       -3.6536850940       -0.6657145373
 C          1.2817279600       -3.6200899106       -0.4501004228
 C          1.9240832757       -2.4177910446       -0.2329679722
 C          1.2101461937       -1.2170684848       -0.2239769235
 C          4.2011731124       -0.1885438513       -0.7144016475
 C          5.5455753599       -0.1710031955       -0.3876121308
 H          6.9891956886        0.0533380684        1.1753848396
 H          5.2944736273        0.3906597305        2.9346352893
 H          2.8863259872        0.3546022387        2.3509106208
 H          3.0165833543        2.3621891047       -0.1653480536
 H          1.8976697152        4.5000724405       -0.5640990401
 H         -0.5564030086        4.5786964434       -0.8885683764
 H         -1.8607606227        2.4936410345       -0.7796644342
 H         -1.3109465281        0.0087468956       -3.1310446368
 H         -3.4960453434        0.0105591562       -4.2907881614
 H         -5.5904267842        0.0011529430       -3.0165986842
 H         -5.5502142318       -0.0068226481       -0.5320557772
 H         -3.9181455140        0.0034414027        4.0482951585
 H         -1.4086491359        0.0044633378        4.2780316935
 H         -1.8745274578       -2.4913675389       -0.7759595157
 H         -0.5904257167       -4.5909851207       -0.8397234664
 H          1.8546764858       -4.5354192773       -0.4508601042
 H          2.9891027391       -2.4063238480       -0.0615462395
 H          3.8823902754       -0.3465090478       -1.7344700900
 H          6.2867625401       -0.3156383164       -1.1595313567
  51
  -80.2751288600000       0.139352814755075      !
 C          6.0123117394       -0.0137817939        0.6340116082
 C          5.5297886213        0.2122293018       -0.6445302346
 C          4.1665788177        0.2186996844       -0.8809677694
 C          3.2822400393        0.0034362720        0.1690184348
 N          1.8781521795        0.0092150569       -0.0572813033
 C          1.2163214602        1.2169674539       -0.1920897293
 C          1.9274881396        2.4197162780       -0.2098102435
 C          1.2750576353        3.6252676163       -0.3701481658
 C         -0.1007844662        3.6616581544       -0.5161332125
 C         -0.8149231083        2.4776287486       -0.4781730995
 C         -0.1757682607        1.2586972651       -0.3149821547
 C         -1.0064454603        0.0033383990       -0.1935219584
 C         -2.1696029693       -0.0034617199       -1.1632224842
 C         -2.1274111074       -0.0035072981       -2.5408534020
 C         -3.3261965685       -0.0073723802       -3.2414612134
 C         -4.5441152776       -0.0120817363       -2.5756691839
 C         -4.5965241679       -0.0123600742       -1.1914719755
 C         -3.4015514387       -0.0075039455       -0.4904908302
 C         -3.1342426865       -0.0045146484        0.9347857944
 N         -3.9873182842       -0.0107315670        1.9464839427
 C         -3.4302337485       -0.0073018670        3.1538758406
 C         -2.0557905111        0.0018482369        3.3450435377
 N         -1.1922693575        0.0072557427        2.3292287389
 C         -1.7376217614        0.0043959169        1.1332220388
 C         -0.1726441414       -1.2508359197       -0.3025231708
 C         -0.8055556127       -2.4741590422       -0.4564480074
 C         -0.0832648556       -3.6529508526       -0.5031332591
 C          1.2957919332       -3.6057289575       -0.3935884840
 C          1.9417696495       -2.3953612171       -0.2441540978
 C          1.2193584975       -1.2002733055       -0.1894878610
 C          3.7657434133       -0.2234084184        1.4507591657
 C          5.1304127798       -0.2333109371        1.6791957146
 H          7.0765316626       -0.0195929363        0.8152077442
 H          6.2164225271        0.3809806462       -1.4606768049
 H          3.7788135809        0.3920574558       -1.8741446550
 H          2.9994926741        2.4073341971       -0.0903627364
 H          1.8472801027        4.5410050760       -0.3794472063
 H         -0.6149339586        4.6015562644       -0.6447147526
 H         -1.8912904704        2.4970218486       -0.5699288187
 H         -1.1815025063        0.0005635404       -3.0620440137
 H         -3.3107199711       -0.0078504506       -4.3213810727
 H         -5.4614489090       -0.0144256856       -3.1455440064
 H         -5.5363096204       -0.0157347466       -0.6617632078
 H         -4.1165635707       -0.0131604105        3.9892016038
 H         -1.6204786849        0.0044229895        4.3343424370
 H         -1.8827968613       -2.5010557609       -0.5353347217
 H         -0.5928300463       -4.5969430769       -0.6194951790
 H          1.8752709799       -4.5163039966       -0.4273589585
 H          3.0178064408       -2.3704867234       -0.1685017763
 H          3.0655369821       -0.3916299576        2.2551866147
 H          5.5057897555       -0.4094813885        2.6760287660
  51
  -80.2748760820000       0.106646601369536      !
 C          5.6846496834        0.0519505235        1.5416907279
 C          4.5779900782        0.2288121940        2.3558139308
 C          3.3055900676        0.2016317608        1.8129449748
 C          3.1416230383       -0.0017227654        0.4492806400
 N          1.8237316835       -0.0165058011       -0.0824964062
 C          1.2085790610        1.1877765664       -0.3741941633
 C          1.9525109962        2.3669466065       -0.4453240985
 C          1.3467794405        3.5599206162       -0.7862422215
 C         -0.0066118549        3.6001365521       -1.0726299545
 C         -0.7544637819        2.4378784839       -0.9907744747
 C         -0.1631941515        1.2357333425       -0.6423258661
 C         -0.9948990455       -0.0065432781       -0.4263399189
 C         -2.2920331316       -0.0041199686       -1.1998275568
 C         -2.4701449072       -0.0034462769       -2.5676349008
 C         -3.7646679567        0.0022621537       -3.0693660269
 C         -4.8618981351        0.0066094833       -2.2188235802
 C         -4.6938087995        0.0054513791       -0.8440592737
 C         -3.4027935632        0.0004604385       -0.3410626080
 C         -2.9161327171        0.0019459012        1.0246160479
 N         -3.5984427665        0.0074275718        2.1584912146
 C         -2.8576713959        0.0114631726        3.2626926484
 C         -1.4702871070        0.0117784093        3.2348659941
 N         -0.7780128851        0.0063012472        2.0953136345
 C         -1.5064308138       -0.0001343574        1.0008493981
 C         -0.1700574146       -1.2556883838       -0.6351268525
 C         -0.7746746776       -2.4551391558       -0.9703059420
 C         -0.0419949254       -3.6280656580       -1.0336287236
 C          1.3082140977       -3.6020562375       -0.7318062771
 C          1.9274303170       -2.4126590086       -0.4018428290
 C          1.2028250940       -1.2200781723       -0.3649540031
 C          4.2508033271       -0.1751337149       -0.3693574337
 C          5.5202782617       -0.1499687622        0.1811418742
 H          6.6768505999        0.0723094177        1.9669232082
 H          4.7065249596        0.3864734545        3.4162531628
 H          2.4294556460        0.3363873370        2.4292689154
 H          3.0101074273        2.3427600678       -0.2324597757
 H          1.9384124148        4.4621256631       -0.8326289887
 H         -0.4819015520        4.5303136488       -1.3430774893
 H         -1.8157970470        2.4675183832       -1.1888955398
 H         -1.6187005501       -0.0062352488       -3.2320213709
 H         -3.9203960252        0.0031467439       -4.1381484870
 H         -5.8579225117        0.0109165315       -2.6362155542
 H         -5.5375085495        0.0086203448       -0.1718745845
 H         -3.4033731314        0.0151224756        4.1959731075
 H         -0.8846432483        0.0170442352        4.1434773075
 H         -1.8358561279       -2.4741843477       -1.1711413829
 H         -0.5276235412       -4.5554079769       -1.2956134463
 H          1.8868288379       -4.5136778078       -0.7529420096
 H          2.9799615003       -2.4057979006       -0.1653898748
 H          4.1117846292       -0.3255323725       -1.4301896550
 H          6.3829720264       -0.2856702412       -0.4542208561
  51
  -80.2747253917000       9.092735392154155E-002 !
 C          5.8478317554        0.0448121154        1.1891101072
 C          4.8272475941        0.3119857657        2.0867856158
 C          3.5093111187        0.2888814332        1.6669297520
 C          3.2116030086        0.0014016386        0.3413573904
 N          1.8516488053       -0.0123702587       -0.0705782566
 C          1.2176596009        1.1943477265       -0.3092943760
 C          1.9565928813        2.3767432814       -0.3935333474
 C          1.3343093372        3.5790209907       -0.6629002825
 C         -0.0339436923        3.6276922252       -0.8661279485
 C         -0.7734888507        2.4608591534       -0.7853931944
 C         -0.1646898269        1.2473117462       -0.5103901969
 C         -1.0004333006        0.0025958135       -0.3338227714
 C         -2.2444727283        0.0023124712       -1.1933886148
 C         -2.3284339077        0.0088017039       -2.5695812680
 C         -3.5858329973        0.0078627331       -3.1582050205
 C         -4.7381199998       -0.0007461517       -2.3843924184
 C         -4.6641819455       -0.0077684411       -1.0013523986
 C         -3.4104641146       -0.0057388696       -0.4118435142
 C         -3.0160327952       -0.0079947645        0.9834621741
 N         -3.7734974220       -0.0177975376        2.0684377319
 C         -3.1092784287       -0.0129676615        3.2203373962
 C         -1.7235162666        0.0054263516        3.2862959526
 N         -0.9556849257        0.0130189771        2.1962702579
 C         -1.6077605663        0.0035199220        1.0548931592
 C         -0.1754699577       -1.2528631096       -0.4991523682
 C         -0.8016640086       -2.4616118086       -0.7555910810
 C         -0.0838944711       -3.6440605867       -0.7937001716
 C          1.2770803276       -3.6173821422       -0.5448254002
 C          1.9171606979       -2.4204903373       -0.2930334867
 C          1.2065272313       -1.2181812069       -0.2833538741
 C          4.2352752037       -0.2587244213       -0.5616943506
 C          5.5508996861       -0.2403525997       -0.1332226310
 H          6.8754023072        0.0579482785        1.5199847428
 H          5.0580817019        0.5325472049        3.1185986145
 H          2.7011565973        0.4940969166        2.3525868079
 H          3.0252781557        2.3479132709       -0.2467334722
 H          1.9242385878        4.4818190959       -0.7187267679
 H         -0.5243585498        4.5656517072       -1.0759933977
 H         -1.8439036609        2.4927563409       -0.9275577257
 H         -1.4337697932        0.0183176898       -3.1746828638
 H         -3.6685058823        0.0159945349       -4.2351303527
 H         -5.7033047825       -0.0000713019       -2.8686114720
 H         -5.5517073399       -0.0142569709       -0.3882759820
 H         -3.7165171872       -0.0218740647        4.1145860599
 H         -1.2007907640        0.0157856463        4.2323367867
 H         -1.8696595431       -2.4772814404       -0.9171341238
 H         -0.5868939607       -4.5765973347       -0.9975554643
 H          1.8481372546       -4.5339077277       -0.5477472854
 H          2.9774973665       -2.4163080659       -0.0956013107
 H          3.9937658725       -0.4731183717       -1.5925808522
 H          6.3458440080       -0.4461924132       -0.8345456544
  51
  -80.2746260501000       8.185407677635675E-002 !
 C          5.6192913322        0.0317013000        1.6191195727
 C          5.5047802157       -0.1848838365        0.2558996138
 C          4.2573159048       -0.2003574784       -0.3436116060
 C          3.1198858219       -0.0043682175        0.4296247437
 N          1.8214218925       -0.0126246467       -0.1463002509
 C          1.2022422170        1.1960115952       -0.4111218905
 C          1.9463134229        2.3752406898       -0.4755587779
 C          1.3365264495        3.5728034550       -0.7923882820
 C         -0.0202028959        3.6168483457       -1.0630019621
 C         -0.7678654959        2.4537077097       -0.9897092812
 C         -0.1722307494        1.2474730364       -0.6640094865
 C         -0.9958059360        0.0003728401       -0.4452228658
 C         -2.3233124443        0.0121035209       -1.1642044762
 C         -2.5586812512        0.0324915918       -2.5232762788
 C         -3.8730674136        0.0341990633       -2.9704534751
 C         -4.9338479656        0.0157584812       -2.0750452910
 C         -4.7083799196       -0.0032305135       -0.7086899729
 C         -3.3974502765       -0.0046484228       -0.2601124055
 C         -2.8548267803       -0.0212282177        1.0841704999
 N         -3.4893980709       -0.0318554525        2.2453912035
 C         -2.7034462557       -0.0395974570        3.3178934724
 C         -1.3184722944       -0.0344935734        3.2326012789
 N         -0.6741188298       -0.0235113062        2.0652792638
 C         -1.4474563480       -0.0190646213        1.0019715663
 C         -0.1749245670       -1.2409434265       -0.7100026715
 C         -0.7809173396       -2.4297598979       -1.0783554866
 C         -0.0460276604       -3.5980230055       -1.1878224756
 C          1.3066627081       -3.5792143522       -0.8970033886
 C          1.9271854178       -2.3997398119       -0.5356216463
 C          1.2012265610       -1.2105171641       -0.4550039251
 C          3.2340748562        0.2153209829        1.7961459111
 C          4.4844790172        0.2339597705        2.3874540197
 H          6.5945101995        0.0445124666        2.0822850314
 H          6.3896490629       -0.3378762009       -0.3440225196
 H          4.1587336108       -0.3583352709       -1.4078314147
 H          3.0063262714        2.3466867024       -0.2743710425
 H          1.9271693584        4.4760072982       -0.8314591969
 H         -0.4984350819        4.5513350205       -1.3127641969
 H         -1.8316595973        2.4862072554       -1.1741377455
 H         -1.7358825124        0.0456537200       -3.2227228399
 H         -4.0732845593        0.0491087888       -4.0316966522
 H         -5.9464318720        0.0160693807       -2.4505148073
 H         -5.5230792412       -0.0172698608       -0.0017805996
 H         -3.2097946429       -0.0481655634        4.2730546962
 H         -0.6957093045       -0.0383113377        4.1162474454
 H         -1.8443043269       -2.4459235335       -1.2664209931
 H         -0.5323619837       -4.5175504065       -1.4747506392
 H          1.8863874899       -4.4887024556       -0.9519866764
 H          2.9811982647       -2.3991933020       -0.3060240387
 H          2.3356316425        0.3670272315        2.3753592612
 H          4.5741671867        0.4041819905        3.4499812824
  51
  -80.2744041919000       6.472638396881521E-002 !
 C          6.0023310634       -0.0365633715        0.6940580991
 C          5.5400347235        0.3860411139       -0.5412563343
 C          4.1823494712        0.4015026241       -0.8079268818
 C          3.2801584227        0.0027284612        0.1714867650
 N          1.8831619277        0.0123908913       -0.0813687789
 C          1.2092549512        1.2178285463       -0.1904418293
 C          1.9013723669        2.4314447211       -0.1574506976
 C          1.2363220406        3.6318325266       -0.3041241068
 C         -0.1351760288        3.6540727433       -0.4880707556
 C         -0.8337799033        2.4605446546       -0.4847828287
 C         -0.1820226544        1.2470552281       -0.3297644182
 C         -1.0045351793       -0.0137227830       -0.2005404234
 C         -2.1753062271       -0.0425033732       -1.1606766839
 C         -2.1438106994       -0.1071862124       -2.5371035048
 C         -3.3480345056       -0.1462483600       -3.2271576980
 C         -4.5608161871       -0.1195601262       -2.5523596673
 C         -4.6024609432       -0.0518967801       -1.1695351266
 C         -3.4019012379       -0.0146539124       -0.4790223410
 C         -3.1233658608        0.0416783584        0.9429879380
 N         -3.9684856999        0.1063875159        1.9592432699
 C         -3.4023036626        0.1530306924        3.1615095326
 C         -2.0266964492        0.1311264231        3.3432726630
 N         -1.1711126254        0.0684015888        2.3226641682
 C         -1.7254102671        0.0260938953        1.1314652333
 C         -0.1637410563       -1.2609314541       -0.3163624479
 C         -0.7900170057       -2.4870305184       -0.4784683202
 C         -0.0594722726       -3.6573164408       -0.5746305314
 C          1.3222520058       -3.5975499665       -0.5160031080
 C          1.9606198751       -2.3851844581       -0.3523159432
 C          1.2296181730       -1.1996122147       -0.2334676870
 C          3.7449600610       -0.4218041766        1.4104781347
 C          5.1039716221       -0.4437800010        1.6668448680
 H          7.0624064399       -0.0502370238        0.8976177407
 H          6.2386895747        0.6994351676       -1.3027074763
 H          3.8140278272        0.7208276914       -1.7719173266
 H          2.9686011742        2.4344631741       -0.0029492397
 H          1.7958751469        4.5548495713       -0.2721920780
 H         -0.6586518560        4.5896032563       -0.6105024444
 H         -1.9087202703        2.4676782118       -0.5936779506
 H         -1.2019641028       -0.1324631658       -3.0649755205
 H         -3.3410686690       -0.2012439859       -4.3057448760
 H         -5.4824111245       -0.1539611686       -3.1142537689
 H         -5.5378243285       -0.0316223135       -0.6324349183
 H         -4.0819384922        0.2108850539        4.0003136770
 H         -1.5838627212        0.1667551615        4.3286338406
 H         -1.8686314025       -2.5218897280       -0.5291330371
 H         -0.5637128028       -4.6032784823       -0.6975967666
 H          1.9097115066       -4.4995014264       -0.6020740651
 H          3.0384985145       -2.3516995658       -0.3201076091
 H          3.0331329895       -0.7348124184        2.1596329602
 H          5.4622517214       -0.7749626114        2.6300381409
  51
  -80.2742437352000       5.461859843774457E-002 !
 C          5.5178995711       -0.0586873274        1.8276397317
 C          4.3439211462       -0.2693554096        2.5323880836
 C          3.1265288882       -0.2391682806        1.8763627445
 C          3.0851135822        0.0010304465        0.5091142100
 N          1.8171630475        0.0200493511       -0.1308985600
 C          1.2030341649        1.2226216293       -0.4330164099
 C          1.9282407299        2.4139522532       -0.4760067039
 C          1.3135754568        3.5974396234       -0.8347883041
 C         -0.0310395110        3.6174691882       -1.1611263315
 C         -0.7661464434        2.4462277626       -1.0888486463
 C         -0.1664004369        1.2539722208       -0.7226018989
 C         -0.9847841407        0.0043406793       -0.4888219443
 C         -2.3162519407        0.0059330348       -1.1993355279
 C         -2.5607863180        0.0130581696       -2.5570852055
 C         -3.8780638170        0.0175890010       -2.9955535109
 C         -4.9328755534        0.0154775665       -2.0929102173
 C         -4.6983259751        0.0075707223       -0.7280131607
 C         -3.3844794582        0.0023739609       -0.2880752626
 C         -2.8334930702       -0.0077098193        1.0527926130
 N         -3.4605418001       -0.0177792501        2.2181119656
 C         -2.6678561013       -0.0306736086        3.2855250503
 C         -1.2834857252       -0.0369107251        3.1913130377
 N         -0.6467085657       -0.0268558832        2.0198343341
 C         -1.4268081567       -0.0097533360        0.9614765096
 C         -0.1541453260       -1.2315815096       -0.7415564973
 C         -0.7336920456       -2.4266098783       -1.1302662368
 C          0.0239832979       -3.5815216912       -1.2299655554
 C          1.3724090628       -3.5415417311       -0.9199216136
 C          1.9664237329       -2.3542383740       -0.5401636041
 C          1.2134924849       -1.1824869149       -0.4526262522
 C          4.2615335263        0.2058076388       -0.2005614641
 C          5.4757518471        0.1780012966        0.4636182272
 H          6.4674704047       -0.0806127929        2.3411903894
 H          4.3775384730       -0.4547136956        3.5956866014
 H          2.1974317112       -0.3956643359        2.4037209143
 H          2.9759120075        2.4116172470       -0.2186502720
 H          1.8916520197        4.5092978748       -0.8606476603
 H         -0.5117575984        4.5399533394       -1.4483325406
 H         -1.8243581574        2.4630180653       -1.3045228002
 H         -1.7424758048        0.0155343629       -3.2618899843
 H         -4.0852969382        0.0232374453       -4.0555718954
 H         -5.9479557159        0.0201783203       -2.4615652139
 H         -5.5083714864        0.0056487512       -0.0156676785
 H         -3.1680398978       -0.0396443799        4.2438745337
 H         -0.6551305757       -0.0517219698        4.0708686808
 H         -1.7921187531       -2.4580638581       -1.3434454625
 H         -0.4410133720       -4.5075434065       -1.5313010972
 H          1.9690512380       -4.4397628970       -0.9781809005
 H          3.0202785206       -2.3277471810       -0.3085577329
 H          4.2193255678        0.3808459114       -1.2659124665
 H          6.3913321253        0.3390138625       -0.0862095177
  51
  -80.2741971075000       5.198905750625838E-002 !
 C          5.6215222973        0.0753286770        1.6191445363
 C          5.4989584698       -0.3179188113        0.2970476803
 C          4.2539340683       -0.3546676548       -0.3071252413
 C          3.1232082539       -0.0088169481        0.4227646920
 N          1.8282114076       -0.0240645790       -0.1554020524
 C          1.2169990691        1.1904162366       -0.4215546800
 C          1.9761267828        2.3587505024       -0.5112190154
 C          1.3778246349        3.5630909302       -0.8236191116
 C          0.0167796313        3.6252101759       -1.0681414502
 C         -0.7439097365        2.4719338973       -0.9800716191
 C         -0.1589432134        1.2589201778       -0.6587786322
 C         -0.9942378312        0.0213134050       -0.4433641312
 C         -2.3206835354        0.0443930037       -1.1642611054
 C         -2.5538622510        0.0988863062       -2.5227566742
 C         -3.8674690485        0.1047703444       -2.9721313312
 C         -4.9295663105        0.0560076274       -2.0794164762
 C         -4.7062143156        0.0001966818       -0.7136902077
 C         -3.3961084824       -0.0054404374       -0.2628170984
 C         -2.8554453940       -0.0550025634        1.0814822262
 N         -3.4908271765       -0.1234482576        2.2402941298
 C         -2.7061344541       -0.1516588564        3.3134023922
 C         -1.3217288724       -0.1025871058        3.2317060285
 N         -0.6764751720       -0.0401714819        2.0665644406
 C         -1.4482947123       -0.0235349848        1.0024361924
 C         -0.1858173734       -1.2292624340       -0.7086734029
 C         -0.8117454047       -2.4113784674       -1.0654418903
 C         -0.0987829988       -3.5942590112       -1.1581818154
 C          1.2510577533       -3.5962982673       -0.8546880791
 C          1.8913167140       -2.4235175708       -0.5054410297
 C          1.1907024989       -1.2176215367       -0.4507951988
 C          3.2470234888        0.3886619084        1.7490461121
 C          4.4950280131        0.4328777134        2.3424177308
 H          6.5953207675        0.1071926249        2.0842140864
 H          6.3766589262       -0.5911630545       -0.2698881257
 H          4.1558309484       -0.6399180318       -1.3444030207
 H          3.0401229553        2.3169914398       -0.3355195033
 H          1.9810923507        4.4568723962       -0.8815449844
 H         -0.4528504762        4.5650551899       -1.3143543940
 H         -1.8095105197        2.5163736060       -1.1509779021
 H         -1.7298650461        0.1368049507       -3.2199070810
 H         -4.0660296895        0.1485945045       -4.0328614772
 H         -5.9415181763        0.0626406022       -2.4564662832
 H         -5.5221285138       -0.0380239919       -0.0090772712
 H         -3.2132848931       -0.2121380278        4.2662936309
 H         -0.6999282346       -0.1138078220        4.1158648183
 H         -1.8747117573       -2.4102059332       -1.2568145472
 H         -0.6004511441       -4.5077368777       -1.4379727944
 H          1.8136454965       -4.5174686765       -0.8890499962
 H          2.9408909603       -2.4457599729       -0.2595532707
 H          2.3564090000        0.6597921579        2.2958427291
 H          4.5896300962        0.7451938504        3.3717588627
