  51
        -80.57874844
 C          6.0026231607        0.0289423257        0.3153778913
 C          5.1567319570        0.2552059220        1.3886406351
 C          3.7848460366        0.2338824379        1.2084641426
 C          3.2584512279       -0.0124691027       -0.0525564494
 N          1.8468696877       -0.0230169725       -0.2259601859
 C          1.1892523271        1.1819882961       -0.3978626471
 C          1.9131197895        2.3646673554       -0.5686507344
 C          1.2644303226        3.5666175318       -0.7681264605
 C         -0.1181488444        3.6156697986       -0.8121266588
 C         -0.8427985681        2.4492039310       -0.6424020429
 C         -0.2071628745        1.2354932368       -0.4362462132
 C         -1.0272830872       -0.0041334033       -0.1703168011
 C         -2.3191785567       -0.0227619781       -0.9575638266
 C         -2.4808623034       -0.0595588733       -2.3261357277
 C         -3.7698337408       -0.0705581611       -2.8423186444
 C         -4.8764258657       -0.0459480059       -2.0045155793
 C         -4.7241112524       -0.0082833595       -0.6282605101
 C         -3.4388598325        0.0040578641       -0.1111334323
 C         -2.9652464852        0.0451076170        1.2587656325
 N         -3.6597932820        0.0837928895        2.3844763712
 C         -2.9308635977        0.1186365730        3.4960482920
 C         -1.5434315923        0.1148062780        3.4828141805
 N         -0.8389828929        0.0769983316        2.3514221293
 C         -1.5548236577        0.0424538017        1.2496056485
 C         -0.2200498543       -1.2680246787       -0.3534666420
 C         -0.8716189668       -2.4849457354       -0.4729772939
 C         -0.1635023084       -3.6717100265       -0.5400127471
 C          1.2180695533       -3.6401016021       -0.4652255414
 C          1.8829103381       -2.4357768697       -0.3517438884
 C          1.1773359284       -1.2308938171       -0.3076616515
 C          4.1063097375       -0.2365734721       -1.1304987176
 C          5.4769936191       -0.2174769222       -0.9424096846
 H          7.0725522219        0.0454557553        0.4584426766
 H          5.5662849133        0.4469556439        2.3691460937
 H          3.1112119450        0.4081633309        2.0340019979
 H          2.9915781037        2.3371052093       -0.5435551201
 H          1.8446523722        4.4687752247       -0.8929253394
 H         -0.6294248617        4.5528145469       -0.9691765749
 H         -1.9224994344        2.4802649465       -0.6639533520
 H         -1.6220596109       -0.0786809701       -2.9807431538
 H         -3.9136074351       -0.0986115556       -3.9124493850
 H         -5.8678037349       -0.0559840218       -2.4327938051
 H         -5.5755467421        0.0116773566        0.0339128869
 H         -3.4868059661        0.1516154845        4.4226425021
 H         -0.9669616936        0.1439429977        4.3966047101
 H         -1.9514137730       -2.5021208401       -0.5042362166
 H         -0.6869980003       -4.6107043565       -0.6327096410
 H          1.7851134043       -4.5585961358       -0.4956804676
 H          2.9598619233       -2.4257471126       -0.2896306729
 H          3.6851054064       -0.4236218569       -2.1075938721
 H          6.1355141914       -0.3902584939       -1.7806424864
  51
        -80.57872321
 C          5.9400157031        0.0411099509        0.5724077485
 C          5.0193706713        0.3371999230        1.5641428755
 C          3.6647933358        0.3110368090        1.2844912292
 C          3.2296780972       -0.0086233527        0.0050738043
 N          1.8341666078       -0.0250082161       -0.2625739055
 C          1.1825515560        1.1788732483       -0.4654611566
 C          1.9123985257        2.3543748145       -0.6570265870
 C          1.2692175614        3.5529624060       -0.8914899701
 C         -0.1126037211        3.6044041557       -0.9524031511
 C         -0.8433754454        2.4443733217       -0.7646647416
 C         -0.2130536817        1.2347434642       -0.5228997902
 C         -1.0297586285       -0.0001209656       -0.2278339796
 C         -2.3565878220       -0.0151885818       -0.9529442301
 C         -2.5834711427       -0.0435310412       -2.3126201004
 C         -3.8953569544       -0.0522220729       -2.7669452671
 C         -4.9607609080       -0.0342276961       -1.8774420292
 C         -4.7431342765       -0.0061837399       -0.5099011594
 C         -3.4348140053        0.0036417645       -0.0543413160
 C         -2.8971472930        0.0348906101        1.2919116820
 N         -3.5374605301        0.0573682099        2.4497175518
 C         -2.7568168870        0.0878751891        3.5257044765
 C         -1.3716745254        0.0998499626        3.4465660934
 N         -0.7215842350        0.0749727293        2.2827180068
 C         -1.4890689140        0.0399972252        1.2160509846
 C         -0.2304650237       -1.2642135416       -0.4452625722
 C         -0.8837686998       -2.4754621983       -0.6034530228
 C         -0.1775988366       -3.6626777547       -0.6851467893
 C          1.2019772360       -3.6375818114       -0.5800618345
 C          1.8685700906       -2.4383864273       -0.4276268076
 C          1.1665974932       -1.2320887960       -0.3754601421
 C          4.1528562896       -0.2978242226       -0.9925121113
 C          5.5060171265       -0.2761573265       -0.7039300396
 H          6.9965059875        0.0567230429        0.7940749146
 H          5.3571559949        0.5828166271        2.5602067830
 H          2.9331332425        0.5385059807        2.0449411007
 H          2.9904668744        2.3230714282       -0.6215537514
 H          1.8529538730        4.4505641952       -1.0319907980
 H         -0.6192654771        4.5395209052       -1.1345260738
 H         -1.9226712572        2.4788719068       -0.7954291462
 H         -1.7567037464       -0.0547816832       -3.0075959765
 H         -4.0897700186       -0.0712492479       -3.8292590769
 H         -5.9711404898       -0.0403351214       -2.2584223593
 H         -5.5619613497        0.0082562297        0.1921813363
 H         -3.2675938135        0.1054750490        4.4782253858
 H         -0.7531866390        0.1314286277        4.3324656634
 H         -1.9628272266       -2.4890254581       -0.6524926748
 H         -0.7020315231       -4.5971811993       -0.8110988540
 H          1.7667365058       -4.5572050657       -0.6184511234
 H          2.9437150312       -2.4353406388       -0.3418078924
 H          3.8045698413       -0.5371893537       -1.9867049428
 H          6.2229046329       -0.5045754153       -1.4785641253
  51
        -80.57872049
 C          6.0453250553       -0.0297343996        0.0566917137
 C          5.4433646028        0.1704506411       -1.1746280587
 C          4.0638135721        0.1784951020       -1.2797935602
 C          3.2833537628       -0.0091774291       -0.1455422882
 N          1.8640800093       -0.0013975600       -0.2366969372
 C          1.1958312117        1.2063706072       -0.3346697081
 C          1.9054642421        2.4048824068       -0.4472184746
 C          1.2441242983        3.6098407985       -0.5714464695
 C         -0.1392638714        3.6498535926       -0.5860595260
 C         -0.8498659551        2.4705171660       -0.4535043467
 C         -0.2015059475        1.2523109809       -0.3248685961
 C         -1.0203279202        0.0040830989       -0.0964811977
 C         -2.2709207762       -0.0182912404       -0.9501893677
 C         -2.3606961375       -0.0489001037       -2.3251986705
 C         -3.6210057645       -0.0622339125       -2.9077745711
 C         -4.7696640496       -0.0462107076       -2.1287016686
 C         -4.6894316701       -0.0157301494       -0.7461741347
 C         -3.4328787451       -0.0013783439       -0.1628845464
 C         -3.0304573475        0.0316827757        1.2298969665
 N         -3.7828644838        0.0520041944        2.3183731076
 C         -3.1128370640        0.0792626475        3.4666197585
 C         -1.7263898307        0.0857813463        3.5253104861
 N         -0.9639811476        0.0645080282        2.4317574809
 C         -1.6212396351        0.0380117589        1.2937070962
 C         -0.2043508718       -1.2563229499       -0.2565348577
 C         -0.8525646771       -2.4795751567       -0.3218199936
 C         -0.1414111114       -3.6626899001       -0.4108912719
 C          1.2419295040       -3.6199304821       -0.4347233092
 C          1.9026831751       -2.4097943249       -0.3748653123
 C          1.1922195726       -1.2102111942       -0.2782052461
 C          3.8865935795       -0.2101302499        1.0888859255
 C          5.2668223889       -0.2217895214        1.1860265022
 H          7.1219762623       -0.0368487482        0.1354407992
 H          6.0492616868        0.3177591950       -2.0562330011
 H          3.5833219841        0.3318560472       -2.2350021113
 H          2.9839392288        2.3897995444       -0.4305165259
 H          1.8154389738        4.5222915850       -0.6559048814
 H         -0.6606763468        4.5892379528       -0.6859465853
 H         -1.9300150008        2.4932411061       -0.4423884014
 H         -1.4689700062       -0.0610217804       -2.9343594693
 H         -3.7088982932       -0.0865827295       -3.9839477424
 H         -5.7373042691       -0.0565442159       -2.6081069490
 H         -5.5742459905       -0.0027552810       -0.1291370735
 H         -3.7161330552        0.0952263941        4.3636321240
 H         -1.1984397893        0.1079859380        4.4681736986
 H         -1.9324844700       -2.5028413326       -0.2967764159
 H         -0.6624562728       -4.6064687917       -0.4568417124
 H          1.8129258915       -4.5339015162       -0.5033045505
 H          2.9810889027       -2.3886151263       -0.4029672457
 H          3.2660668066       -0.3570997858        1.9601135266
 H          5.7353242794       -0.3778202123        2.1461204749
  51
        -80.57864910
 C          5.8179918380        0.0605491396        0.9176360691
 C          4.8062934487        0.2699093479        1.8403531406
 C          3.4826440149        0.2347295667        1.4389034851
 C          3.1717381670       -0.0093404674        0.1078940786
 N          1.8041036629       -0.0314775274       -0.2780188675
 C          1.1652363326        1.1674340797       -0.5392770613
 C          1.9012258029        2.3387558822       -0.7270559476
 C          1.2663724362        3.5247868497       -1.0378848696
 C         -0.1098766222        3.5654098428       -1.1778547067
 C         -0.8485468439        2.4113481953       -0.9795250354
 C         -0.2272897658        1.2164808942       -0.6593673782
 C         -1.0351218627       -0.0128627297       -0.3162118454
 C         -2.4081509680       -0.0253766428       -0.9450841009
 C         -2.7328590086       -0.0655506028       -2.2850736270
 C         -4.0739477306       -0.0664418367       -2.6442906646
 C         -5.0729385864       -0.0284547395       -1.6809996038
 C         -4.7574451172        0.0115173689       -0.3330016936
 C         -3.4197046048        0.0131885876        0.0278284937
 C         -2.7884743498        0.0533499930        1.3323799889
 N         -3.3443850700        0.0983529327        2.5324582999
 C         -2.4887453282        0.1312885626        3.5497169653
 C         -1.1124777443        0.1212820416        3.3725249951
 N         -0.5472739049        0.0760410405        2.1657312888
 C         -1.3895897442        0.0409217487        1.1568919940
 C         -0.2419693817       -1.2734362911       -0.5734717003
 C         -0.8833860000       -2.4784740165       -0.8038149513
 C         -0.1658909493       -3.6577647073       -0.9089828765
 C          1.2090899536       -3.6316988500       -0.7554062734
 C          1.8644223334       -2.4369696753       -0.5315044145
 C          1.1521694307       -1.2389023865       -0.4540890413
 C          4.1854671229       -0.2154077056       -0.8196890516
 C          5.5070252194       -0.1819878004       -0.4102788907
 H          6.8503596910        0.0872049827        1.2326057305
 H          5.0490861003        0.4592258194        2.8753027314
 H          2.6786263246        0.3943490579        2.1415434793
 H          2.9755294465        2.3139115113       -0.6287662822
 H          1.8526646686        4.4210811051       -1.1759909199
 H         -0.6083551480        4.4900514221       -1.4244894682
 H         -1.9249551904        2.4421220981       -1.0629325775
 H         -1.9581175164       -0.0945785297       -3.0369430658
 H         -4.3441256807       -0.0973621685       -3.6895637243
 H         -6.1081757631       -0.0301896838       -1.9885384587
 H         -5.5236442453        0.0411120702        0.4257700881
 H         -2.9305050834        0.1673693352        4.5358014883
 H         -0.4321658575        0.1504909452        4.2121103413
 H         -1.9601051167       -2.4964455534       -0.8884118292
 H         -0.6801713370       -4.5893899895       -1.0879380111
 H          1.7788801986       -4.5474657910       -0.8102297235
 H          2.9363440859       -2.4300218541       -0.4102012802
 H          3.9322347181       -0.3974057340       -1.8541265911
 H          6.2956225481       -0.3430464989       -1.1303591438
  51
        -80.57856574
 C          5.7391425550        0.0731685410        1.1206593313
 C          5.5055690103       -0.2121491309       -0.2144166211
 C          4.2105393086       -0.2491213055       -0.7016039294
 C          3.1454393617       -0.0053698152        0.1564174867
 N          1.8016820982       -0.0335491996       -0.3032440006
 C          1.1652604497        1.1644628120       -0.5753657419
 C          1.9042798272        2.3333156610       -0.7651253438
 C          1.2726479673        3.5175342007       -1.0892322827
 C         -0.1023781463        3.5576639373       -1.2427869119
 C         -0.8441565413        2.4053583509       -1.0447364948
 C         -0.2258744807        1.2130386126       -0.7101260797
 C         -1.0308311963       -0.0150967061       -0.3563876200
 C         -2.4159372258       -0.0304334323       -0.9568805560
 C         -2.7688616870       -0.0779911961       -2.2895744058
 C         -4.1172247940       -0.0895039003       -2.6202793098
 C         -5.0959331164       -0.0541987128       -1.6362900751
 C         -4.7522324930       -0.0047973783       -0.2955616661
 C         -3.4071897748        0.0071017832        0.0368219519
 C         -2.7494609247        0.0554370127        1.3278944299
 N         -3.2803836937        0.1090228920        2.5388761599
 C         -2.4039283978        0.1504587349        3.5379509801
 C         -1.0316587371        0.1409623537        3.3324285275
 N         -0.4915221116        0.0873461251        2.1145080004
 C         -1.3546189546        0.0429975255        1.1236543327
 C         -0.2397530218       -1.2743769188       -0.6269967647
 C         -0.8789877835       -2.4760048888       -0.8793155720
 C         -0.1598190690       -3.6537351223       -0.9917095587
 C          1.2131268623       -3.6300302501       -0.8209515762
 C          1.8662012982       -2.4381962028       -0.5763482791
 C          1.1534741841       -1.2410790558       -0.4945156330
 C          3.3789888821        0.2832193283        1.4946452360
 C          4.6762410437        0.3229102755        1.9732522851
 H          6.7510678612        0.1025031131        1.4960056580
 H          6.3343081111       -0.4022145790       -0.8802790203
 H          4.0190760863       -0.4607033551       -1.7436279808
 H          2.9777116795        2.3072877584       -0.6556462094
 H          1.8602391489        4.4131645620       -1.2261469419
 H         -0.5978681091        4.4816257122       -1.4980061869
 H         -1.9198824146        2.4362133790       -1.1374175699
 H         -2.0101548916       -0.1067678006       -3.0576449778
 H         -4.4091765798       -0.1275276779       -3.6594446640
 H         -6.1373959361       -0.0656584197       -1.9218202698
 H         -5.5022225276        0.0234258918        0.4792746683
 H         -2.8250798276        0.1945935762        4.5326763965
 H         -0.3342270220        0.1778422864        4.1575998660
 H         -1.9547657445       -2.4939371702       -0.9731345175
 H         -0.6719739295       -4.5831452329       -1.1873462921
 H          1.7832205228       -4.5453950014       -0.8790307031
 H          2.9362174082       -2.4336622903       -0.4395878696
 H          2.5349176451        0.4710391992        2.1411516489
 H          4.8587318185        0.5466992235        3.0137326453
  51
        -80.57849908
 C          6.0558657506       -0.0299876791       -0.6207704448
 C          5.2490979101        0.0129728086       -1.7458880181
 C          3.8720235960        0.0183640613       -1.6119448310
 C          3.3009088563       -0.0180441888       -0.3461711651
 N          1.8840430667       -0.0118533091       -0.2068268271
 C          1.2177600193        1.2000384592       -0.1908897483
 C          1.9298447713        2.3978653797       -0.2990104750
 C          1.2754331225        3.6127545989       -0.2943024563
 C         -0.1037007607        3.6631683286       -0.1852028357
 C         -0.8150915980        2.4825306529       -0.0725817231
 C         -0.1733578216        1.2537642098       -0.0714204734
 C         -1.0026838488        0.0008049418        0.0802850200
 C         -2.1407711551       -0.0227853007       -0.9220952090
 C         -2.0599536319       -0.0667709472       -2.2969091878
 C         -3.2387097158       -0.0808296856       -3.0304485956
 C         -4.4744195424       -0.0506285930       -2.3990320350
 C         -4.5651490943       -0.0066925337       -1.0176157692
 C         -3.3899700940        0.0064564868       -0.2839195772
 C         -3.1608569182        0.0465272976        1.1476528562
 N         -4.0417417298        0.0826671628        2.1348257914
 C         -3.5182373494        0.1114058828        3.3568816339
 C         -2.1495085170        0.1034882868        3.5858400356
 N         -1.2582896327        0.0685970305        2.5948667265
 C         -1.7696552168        0.0407484106        1.3842200836
 C         -0.1778797654       -1.2608562558       -0.0041547109
 C         -0.8244567845       -2.4855964948        0.0575028702
 C         -0.1184215282       -3.6731962788       -0.0025092441
 C          1.2597516579       -3.6338808866       -0.1277091629
 C          1.9188938818       -2.4234795657       -0.1944711848
 C          1.2128496585       -1.2187976163       -0.1310517382
 C          4.1091024427       -0.0605001165        0.7822181371
 C          5.4857308138       -0.0668554647        0.6410913171
 H          7.1300329354       -0.0344437083       -0.7278582177
 H          5.6922856560        0.0412669115       -2.7300750275
 H          3.2318444730        0.0517121271       -2.4813018160
 H          3.0051630103        2.3715924469       -0.3835489806
 H          1.8481864897        4.5244657918       -0.3764342805
 H         -0.6200596998        4.6105698472       -0.1826672841
 H         -1.8916290947        2.5109450153        0.0164991591
 H         -1.0999800911       -0.0911804408       -2.7912333691
 H         -3.1935367277       -0.1159375616       -4.1089805475
 H         -5.3755939039       -0.0616062905       -2.9941027142
 H         -5.5193344017        0.0170625618       -0.5148414879
 H         -4.2275671075        0.1419968134        4.1723107517
 H         -1.7415561663        0.1265876660        4.5864203270
 H         -1.9006059193       -2.5046596661        0.1530690820
 H         -0.6381492439       -4.6173826364        0.0490727229
 H          1.8276921252       -4.5510605668       -0.1750334910
 H          2.9931039436       -2.4054299965       -0.2951323702
 H          3.6506172880       -0.0887247165        1.7593936979
 H          6.1144159761       -0.0993514750        1.5182746655
  51
        -80.57847885
 C          5.6871370435       -0.0099293567        1.2030380396
 C          4.5982916452       -0.1653629760        2.0453756865
 C          3.3154132221       -0.1610362691        1.5281439694
 C          3.1226406487       -0.0023390808        0.1619693288
 N          1.7912608619       -0.0076528308       -0.3330824365
 C          1.1523175833        1.1814091464       -0.6372085040
 C          1.8732059785        2.3600599919       -0.8325120853
 C          1.2273237560        3.5266998351       -1.1916327070
 C         -0.1452201992        3.5419334729       -1.3670696776
 C         -0.8725929270        2.3851891551       -1.1428281987
 C         -0.2407401861        1.2104053843       -0.7741136278
 C         -1.0331699412       -0.0140462792       -0.3756702186
 C         -2.4356130000       -0.0402634163       -0.9325406874
 C         -2.8301550444       -0.1114249235       -2.2526181970
 C         -4.1881152829       -0.1186452989       -2.5413860093
 C         -5.1355696372       -0.0554101026       -1.5286033429
 C         -4.7501553117        0.0155063776       -0.2002785903
 C         -3.3954433322        0.0221871617        0.0903687054
 C         -2.6982644753        0.0860395141        1.3598090784
 N         -3.1913438096        0.1523161510        2.5860802043
 C         -2.2845166638        0.1944185236        3.5575633450
 C         -0.9193548631        0.1674451135        3.3105778472
 N         -0.4172956346        0.1006803757        2.0771162124
 C         -1.3105868631        0.0631807461        1.1129618096
 C         -0.2411517537       -1.2718424567       -0.6439894657
 C         -0.8654991551       -2.4815133756       -0.8928851351
 C         -0.1285627332       -3.6485269871       -1.0061861352
 C          1.2462021026       -3.6048745039       -0.8509643794
 C          1.8838950424       -2.4036062109       -0.6120898549
 C          1.1503863183       -1.2205608383       -0.5123986707
 C          4.2133374131        0.1468940369       -0.6851712679
 C          5.4939820849        0.1454645763       -0.1596418522
 H          6.6880005030       -0.0115763791        1.6082162656
 H          4.7496155969       -0.2873562029        3.1075951887
 H          2.4503421399       -0.2756496310        2.1640173993
 H          2.9430389198        2.3616214026       -0.6935591044
 H          1.8027377576        4.4290215665       -1.3366875563
 H         -0.6511034080        4.4508531204       -1.6543005059
 H         -1.9481863387        2.4006566825       -1.2401362406
 H         -2.0956349305       -0.1599163660       -3.0428819416
 H         -4.5123594349       -0.1739383455       -3.5701837814
 H         -6.1854299737       -0.0616017274       -1.7817263909
 H         -5.4756180377        0.0649102490        0.5965128511
 H         -2.6746249836        0.2480660555        4.5643580006
 H         -0.1968086486        0.1982305617        4.1140994215
 H         -1.9412310003       -2.5140503377       -0.9847773198
 H         -0.6281897500       -4.5857287894       -1.1974107542
 H          1.8288210325       -4.5114387655       -0.9207763731
 H          2.9571196752       -2.3748743813       -0.5011108208
 H          4.0532039901        0.2585577544       -1.7478476852
 H          6.3431315837        0.2633942929       -0.8165745366
  51
        -80.57842833
 C          6.0409007043       -0.0593561232        0.1225856873
 C          5.4652773940        0.3535012104       -1.0675911201
 C          4.0885002380        0.3730526901       -1.2045724541
 C          3.2816290767       -0.0117467847       -0.1400965710
 N          1.8670044220        0.0023335613       -0.2595424837
 C          1.1905936512        1.2099565567       -0.3164867835
 C          1.8875443823        2.4204155380       -0.3615188234
 C          1.2163661513        3.6225802425       -0.4566803419
 C         -0.1662932962        3.6497813778       -0.5100741791
 C         -0.8661824861        2.4597935381       -0.4285171715
 C         -0.2074984858        1.2446744431       -0.3236564062
 C         -1.0190677027       -0.0107265798       -0.1043151979
 C         -2.2756821557       -0.0430689915       -0.9488676783
 C         -2.3750551420       -0.1212703076       -2.3213603723
 C         -3.6394117508       -0.1611061241       -2.8937859918
 C         -4.7826540705       -0.1218984218       -2.1074248752
 C         -4.6927662488       -0.0406047024       -0.7276321969
 C         -3.4320209822       -0.0025655746       -0.1543844829
 C         -3.0197279258        0.0662028049        1.2341953169
 N         -3.7644493356        0.1449361468        2.3252410536
 C         -3.0866747504        0.2004665288        3.4679220415
 C         -1.7001303288        0.1735598958        3.5187495738
 N         -0.9453968669        0.0967169936        2.4223589710
 C         -1.6102743608        0.0455708405        1.2895250431
 C         -0.1980061179       -1.2631234035       -0.2866309627
 C         -0.8417005837       -2.4876424301       -0.3762377834
 C         -0.1282215803       -3.6623876371       -0.5293172668
 C          1.2530653907       -3.6088543137       -0.6024724100
 C          1.9088924898       -2.3981121722       -0.5122979497
 C          1.1971697609       -1.2078589834       -0.3367472610
 C          3.8600872453       -0.4265087751        1.0535226213
 C          5.2371821321       -0.4526807760        1.1801873803
 H          7.1154352901       -0.0762683271        0.2249219059
 H          6.0898510446        0.6560439344       -1.8949471080
 H          3.6317352265        0.6848093054       -2.1325166587
 H          2.9646163959        2.4196828162       -0.3088644844
 H          1.7800940692        4.5430993327       -0.4872619891
 H         -0.6952914073        4.5866432751       -0.5918334882
 H         -1.9465679439        2.4711585256       -0.4351449382
 H         -1.4875933769       -0.1563067481       -2.9358087951
 H         -3.7349335414       -0.2266075942       -3.9675683195
 H         -5.7534899887       -0.1572194841       -2.5790981563
 H         -5.5729192211       -0.0105127331       -0.1045611182
 H         -3.6835051328        0.2698078497        4.3667147302
 H         -1.1657515688        0.2165769464        4.4573105160
 H         -1.9203909927       -2.5176841305       -0.3241264318
 H         -0.6456066638       -4.6070066273       -0.5943636344
 H          1.8261285516       -4.5144788872       -0.7346694461
 H          2.9850955439       -2.3696203286       -0.5826980729
 H          3.2212367757       -0.7287203114        1.8698823192
 H          5.6838281577       -0.7762525625        2.1084095836
  51
        -80.57838407
 C          5.7414223108        0.1307894619        1.1170408873
 C          5.5030837850       -0.3429679646       -0.1621597316
 C          4.2100500234       -0.4072415223       -0.6524593933
 C          3.1481364210       -0.0075736403        0.1497238642
 N          1.8076425923       -0.0483687776       -0.3117283636
 C          1.1786972893        1.1520659497       -0.5994185904
 C          1.9301356328        2.3064226482       -0.8277178764
 C          1.3099945136        3.4937554894       -1.1618748200
 C         -0.0670176946        3.5514666039       -1.2907169028
 C         -0.8201118357        2.4120515460       -1.0648113372
 C         -0.2125028930        1.2167229641       -0.7201110987
 C         -1.0290372589        0.0016668508       -0.3558292014
 C         -2.4132007487       -0.0095055698       -0.9588631407
 C         -2.7637492121       -0.0377810117       -2.2927178247
 C         -4.1115027959       -0.0493224318       -2.6258275596
 C         -5.0918771614       -0.0339096525       -1.6429762185
 C         -4.7504912100       -0.0064204052       -0.3009966399
 C         -3.4060940232        0.0054888050        0.0338914112
 C         -2.7504567733        0.0353330620        1.3266260206
 N         -3.2826001681        0.0442330761        2.5382299359
 C         -2.4074429689        0.0765519283        3.5388073781
 C         -1.0353033875        0.1093258097        3.3343080158
 N         -0.4938928985        0.0939344571        2.1159317371
 C         -1.3554731798        0.0505197198        1.1238905666
 C         -0.2500471945       -1.2694462955       -0.6114038953
 C         -0.9077371937       -2.4664070655       -0.8376708848
 C         -0.2086267224       -3.6584533875       -0.9176245095
 C          1.1625186204       -3.6524433453       -0.7329437284
 C          1.8338053433       -2.4653826347       -0.5148139381
 C          1.1437353981       -1.2528357794       -0.4752502582
 C          3.3880972147        0.4706571573        1.4327110741
 C          4.6831776492        0.5416869095        1.9115447095
 H          6.7521270616        0.1837099760        1.4928916344
 H          6.3273252578       -0.6580004959       -0.7849094522
 H          4.0211810309       -0.7556878585       -1.6573727457
 H          3.0052846943        2.2671344891       -0.7427889117
 H          1.9082237544        4.3773269241       -1.3278746629
 H         -0.5538912086        4.4779104123       -1.5536578716
 H         -1.8964347262        2.4543262198       -1.1450033682
 H         -2.0035518457       -0.0499352035       -3.0597772402
 H         -4.4016410868       -0.0699952052       -3.6659658852
 H         -6.1328193253       -0.0426255703       -1.9304141704
 H         -5.5019867434        0.0058318059        0.4727995450
 H         -2.8297696588        0.0795593535        4.5340420906
 H         -0.3388417601        0.1481515873        4.1601000379
 H         -1.9833311224       -2.4686090192       -0.9357279459
 H         -0.7351276059       -4.5835131321       -1.0949857823
 H          1.7175906961       -4.5784549331       -0.7582056132
 H          2.9007549881       -2.4807092261       -0.3600716879
 H          2.5492302213        0.7824303828        2.0366911593
 H          4.8679371050        0.9166799282        2.9071742937
