  38
        -65.65188675
 O         -1.2828634366        2.8348282273       -0.0269951706
 C         -2.2992082420        1.9720329416       -0.0190242845
 C         -3.6013656306        2.4766197388       -0.0200392732
 C         -4.6928896384        1.6355172802       -0.0092755029
 C         -4.4864712931        0.2643312555        0.0021737419
 Br        -5.9893985783       -0.9156134602        0.0194144560
 C         -3.2158613419       -0.2698338078        0.0012732911
 C         -2.1030681348        0.5718269768       -0.0098613469
 C         -0.7540306553        0.0486064124       -0.0123028694
 N          0.3185852290        0.8145364612       -0.0069864447
 C          1.3955830564       -0.0215000085       -0.0116189326
 C          0.9462240151       -1.3517335046       -0.0213113566
 C          1.8393078286       -2.4203428959       -0.0287471822
 C          3.1778208309       -2.1234914676       -0.0242609338
 C          3.6774232385       -0.7989977160       -0.0113012170
 C          5.0894639496       -0.5071195770       -0.0010580979
 C          6.0820740179       -1.5026867225       -0.0067484797
 C          7.4169279819       -1.1853942437        0.0082727976
 C          7.8284541824        0.1486241459        0.0295374235
 C          6.8880219245        1.1441636062        0.0331741474
 C          5.5145025705        0.8451296594        0.0176048904
 C          4.5559084427        1.8947080451        0.0211711652
 C          3.2289039357        1.6262171075        0.0093267464
 C          2.7709454039        0.2855208103       -0.0052918361
 N         -0.4215396233       -1.2787821604       -0.0210377622
 H         -0.4348543119        2.3112034799       -0.0211869496
 H         -3.7308406351        3.5467893860       -0.0287209002
 H         -5.6943591303        2.0359210089       -0.0098689435
 H         -3.0958975156       -1.3422693901        0.0116842343
 H          1.4897488837       -3.4415112189       -0.0373307785
 H          3.8728124756       -2.9471873999       -0.0298400666
 H          5.8035457734       -2.5444644779       -0.0232150761
 H          8.1564824912       -1.9726047557        0.0039564130
 H          8.8814634208        0.3873685240        0.0424523331
 H          7.1889898848        2.1821044463        0.0483993617
 H          4.9139520636        2.9141389517        0.0338731314
 H          2.4892949323        2.4122141349        0.0121087819
 H         -1.0532251204       -2.0614335842       -0.0286412809
