38
 energy: -65.678733432683 gnorm: 0.000035743072 xtb: 6.7.1 (edcfbbe)
O           -1.28804760031304        2.83774246050835        0.02051551810077
C           -2.30544158382020        1.97142393423752        0.00385273039306
C           -3.60765399305454        2.47513266289214        0.00219007627747
C           -4.69810695845891        1.63213375711181       -0.01611235859359
C           -4.48838646522556        0.26135120171908       -0.03315862523386
Br          -5.99203873326829       -0.92324500653279       -0.06057330065371
C           -3.21694792038042       -0.27162652928068       -0.03097428724052
C           -2.10530982384093        0.57234025508946       -0.01196353035022
C           -0.75445408664483        0.05170727440039       -0.00854500343666
N            0.31849900053285        0.81902105438149        0.00113652509212
C            1.39639142587507       -0.01828366495416        0.00045017889503
C            0.94627319413736       -1.34829688226455       -0.00930189224850
C            1.83857650353813       -2.41820860737167       -0.01178347994216
C            3.17740169675333       -2.12208299308559       -0.00635986855582
C            3.67816258558846       -0.79752676754616        0.00150479063985
C            5.09126445088364       -0.50751070287330        0.00397592669798
C            6.08280141468130       -1.50477261235255       -0.00373030801647
C            7.41846768457247       -1.18885436044474       -0.00257396354820
C            7.83223143531031        0.14502068739429        0.00663116453331
C            6.89292033963598        1.14209662204099        0.01462703333555
C            5.51853624359846        0.84445869413585        0.01313036761165
C            4.56092376841270        1.89544697637182        0.01999845089430
C            3.23323912255772        1.62847059566302        0.01621858895900
C            2.77254936467417        0.28818331985525        0.00645077095574
N           -0.42168329769529       -1.27479100838080       -0.01503342008533
H           -0.43925437894585        2.31536440515942        0.01732878635186
H           -3.73819968184860        3.54537516995071        0.01496741435649
H           -5.69970027578334        2.03233627574024       -0.01766561429109
H           -3.09500623913302       -1.34344610870504       -0.04482471140266
H            1.48859048790183       -3.43917875025355       -0.01792433482139
H            3.87194699150937       -2.94572063634509       -0.00831117114046
H            5.80331048699673       -2.54620321520038       -0.01113190976125
H            8.15706471417837       -1.97745649219286       -0.00901874766368
H            8.88596911995036        0.38261581656740        0.00735591028242
H            7.19527118459822        2.17983641199755        0.02167598351136
H            4.91936244914187        2.91479374350364        0.02751249725579
H            2.49564452630623        2.41659118318534        0.02035330448513
H           -1.05457465385542       -2.05711983539369       -0.02135293420208
