38
 energy: -65.678736035668 gnorm: 0.000036050098 xtb: 6.7.1 (edcfbbe)
O           -3.18050450032183        2.33240952200229       -0.00004240381051
C           -4.08920606968602        1.35247763612522       -0.00001485093296
C           -5.44151459819066        1.70011796632672       -0.00001336015836
C           -6.42544834803715        0.73474550402850        0.00002322233957
C           -6.05612382424110       -0.60200873482894        0.00005725481884
Br          -7.41039111688151       -1.95492738818827        0.00009272866340
C           -4.73105640877783       -0.98226993384721        0.00004723936694
C           -3.72612437747461       -0.01347151058139        0.00001237416353
C           -2.32349078492532       -0.37187150586266        0.00000831300832
N           -1.34794173082835        0.51604917309840        0.00000678570016
C           -0.17920206684284       -0.18902594546104       -0.00000095736938
C           -0.47032224415861       -1.56264819144872       -0.00000442594389
C            0.54109434180557       -2.52071136314168       -0.00001562938355
C            1.83605246219223       -2.06994759302660       -0.00001975463632
C            2.17815898815660       -0.69580059361370       -0.00001457064089
C            3.54755271917464       -0.24235074149917       -0.00001680812993
C            4.64873028049504       -1.11697817829914       -0.00003024001189
C            5.93838142581292       -0.64739123244955       -0.00002738492189
C            6.19349276939831        0.72571659765931       -0.00001071261486
C            5.14417930528624        1.60635315055148        0.00000157470469
C            3.81390273732060        1.15029967451702       -0.00000206299733
C            2.73988463367969        2.08200742245170        0.00000968973049
C            1.45252310407578        1.66154708364960        0.00000720306905
C            1.15166579893097        0.27648418536031       -0.00000423172223
N           -1.83742203440780       -1.65017935397740        0.00000470072142
H           -2.27618478545768        1.91351140430007       -0.00003287050278
H           -5.69632443223010        2.74787052054393       -0.00003696026241
H           -7.46737373536177        1.01375666235968        0.00002235056796
H           -4.48465805661644       -2.03262095616761        0.00007782522496
H            0.31265847756697       -3.57555355965802       -0.00001594478113
H            2.62206213041840       -2.80680354109264       -0.00003164070775
H            4.49256822674642       -2.18386460355115       -0.00004358877417
H            6.76391614525764       -1.34445151452256       -0.00003760096165
H            7.21229805531110        1.08454031217172       -0.00000720786406
H            5.32360063899016        2.67223931261088        0.00001469226492
H            2.97671524360367        3.13629932011243        0.00001994504257
H            0.62781836705542        2.35795990441491        0.00001512630666
H           -2.37396873684398       -2.50150991105633        0.00000218144319
