38
 energy: -65.592030164489 gnorm: 0.000190223696 xtb: 6.7.1 (edcfbbe)
O           -1.27678949212366        2.82404496498353        0.00631325198435
C           -2.30509589499304        1.96780627481954        0.00635835459495
C           -3.59541804108148        2.47463578703326        0.01320190423624
C           -4.70058285518271        1.63598229109964        0.01327592876873
C           -4.49097325073290        0.25828560703629        0.00578914063270
Br          -6.01139368141161       -0.90550171135724        0.00419555105894
C           -3.23606084784130       -0.29236135471001       -0.00043593990555
C           -2.09268806311800        0.54594295975387        0.00011136008736
C           -0.78707766500837        0.02949295070494       -0.00392312544899
N            0.33699046721182        0.80267435392428       -0.00637122642955
C            1.37680683580549       -0.02011749342365       -0.00757153806264
C            0.93535111483671       -1.38005862609798       -0.00543288769477
C            1.82238312940657       -2.42356866064059       -0.00384489770973
C            3.20039446480678       -2.10909681916681       -0.00201440820213
C            3.69087876326344       -0.81038147968936       -0.00250626533255
C            5.11299190881745       -0.50833068663344        0.00228480469857
C            6.10154955497878       -1.49216925843699        0.02271171561412
C            7.44791679701648       -1.17044522042537        0.02582430746686
C            7.85734719100925        0.16162908722554        0.00864739760162
C            6.91513856819530        1.15752469799353       -0.00986326465516
C            5.53263457884149        0.85609028440237       -0.01172700553572
C            4.58346904456396        1.89003180136389       -0.02461655966112
C            3.22318997732509        1.60583668665816       -0.02122808426356
C            2.77621841083109        0.29379615183545       -0.00982844680317
N           -0.43283234386180       -1.31011051732036       -0.00423827123057
H           -0.43447698547872        2.29196095120664        0.00140270525808
H           -3.72294268192063        3.54539339290759        0.01854329813662
H           -5.69902935136338        2.04090165312245        0.01871848656319
H           -3.12104446522441       -1.36436184947622       -0.00627026034381
H            1.49842012813587       -3.45202946764518       -0.00300481735493
H            3.88302574930590       -2.94252607404007       -0.00119774879881
H            5.82981654400461       -2.53546255629660        0.03747745590393
H            8.18464878701412       -1.95988011316942        0.04173971815717
H            8.90994837210749        0.40309425658756        0.01039345643889
H            7.21234419654933        2.19598897782751       -0.02219865070578
H            4.92070804402672        2.91533918248098       -0.03475416108533
H            2.49569513181702        2.40329690318599       -0.02839094860491
H           -1.06501247036081       -2.09041371441873       -0.00156093661614
