  58
       -102.23493115
 F          5.2177872056        2.3108059482       -2.0591399918
 B          5.0305999613        1.9285499953       -0.7515351820
 F          5.1722068259        3.0185188307        0.0815959166
 O          5.9789348647        0.8831806741       -0.3843112458
 C          5.6391713637       -0.2808516672        0.1000059724
 C          6.7638059832       -1.1485127524        0.4807148045
 C          6.6501213179       -2.5382802718        0.5231939949
 C          7.7329417780       -3.3130770864        0.8936754042
 C          8.9387111341       -2.7169730387        1.2282628083
 C          9.0637437039       -1.3379129306        1.1784046520
 C          7.9872915194       -0.5584062867        0.8021117630
 C          4.3298609704       -0.6687597660        0.2685779898
 C          3.2646429107        0.1799624193       -0.0943471104
 C          1.9129127384       -0.1833633642        0.0441708774
 C          0.9287526643        0.7125986098       -0.3303691163
 C         -0.5015882448        0.4547135709       -0.2134864566
 C         -1.3962910752        1.2820665029       -0.9003203034
 C         -2.7550245567        1.0758822850       -0.8195507418
 C         -3.2625274292        0.0344092969       -0.0417320978
 N         -4.6470122059       -0.1802456505        0.0477199078
 C         -5.4954206621        0.8201085540        0.5388979704
 C         -5.0171507836        2.0356299106        1.0127518738
 C         -5.8858460491        3.0011887469        1.4974394359
 C         -7.2454850455        2.7648402527        1.5300525142
 C         -7.7354834487        1.5421839554        1.0983068658
 C         -6.8725033833        0.5743403563        0.6169780018
 O         -7.4302104569       -0.6236229889        0.2501585766
 C         -6.5879654903       -1.5971692076       -0.2208179875
 C         -7.1676281290       -2.7950012982       -0.5980461240
 C         -6.3895486413       -3.8146538206       -1.1239059303
 C         -5.0335964781       -3.6170371795       -1.2906346945
 C         -4.4474366964       -2.4195483139       -0.9107132560
 C         -5.2059017107       -1.4025274089       -0.3438618786
 C         -2.3765061980       -0.7894056914        0.6533380344
 C         -1.0169448817       -0.5821000258        0.5690447998
 N          1.2722167355        1.9161732031       -0.8568918119
 C          2.5276260318        2.2018433619       -0.9678204505
 N          3.5422129283        1.4080622876       -0.6046469548
 H          5.7252658073       -3.0169640962        0.2399124780
 H          7.6383704329       -4.3885730135        0.9181012786
 H          9.7799439586       -3.3273270524        1.5210000413
 H         10.0029836883       -0.8699236424        1.4322531149
 H          8.0702197821        0.5165019839        0.7582492405
 H          4.0918880858       -1.6245096802        0.7005531590
 H          1.6825222968       -1.1617089435        0.4317224266
 H         -0.9951873356        2.0794750148       -1.5051970044
 H         -3.4369187499        1.7095254176       -1.3669734239
 H         -3.9559985502        2.2288398590        1.0145094326
 H         -5.4852160581        3.9376770112        1.8531351763
 H         -7.9256819975        3.5149423595        1.9007985138
 H         -8.7885008273        1.3134263167        1.1330345560
 H         -8.2334590099       -2.9048400045       -0.4777769889
 H         -6.8493721575       -4.7465405911       -1.4119929003
 H         -4.4178631890       -4.3904334022       -1.7230727024
 H         -3.3905993894       -2.2723758945       -1.0688359981
 H         -2.7681853545       -1.5819701820        1.2739571210
 H         -0.3573862633       -1.2141627763        1.1432471374
 H          2.8020478221        3.1607186243       -1.3844861061
