54
 energy: -89.339412702964 gnorm: 0.000048008159 xtb: 6.7.1 (edcfbbe)
N           -3.38121409274517       -2.68238696933251       -2.22425889363002
C           -2.40154319726726       -2.24494666613918       -1.78950386183748
C           -1.21307000957984       -1.72621687107880       -1.28569472796671
C            0.00167129083506       -2.26280107985315       -1.69289740822457
C            1.21562323435271       -1.72465505884399       -1.28540728924235
C            2.40484328680458       -2.24195177273530       -1.78892579012376
N            3.38509609105358       -2.67821148858978       -2.22356903139713
C            1.20971065126010       -0.55080579318956       -0.42072558115540
N            2.41917271591562        0.00208299900571        0.00290577234099
C            3.42179317744894       -0.67677832769863        0.65885163115103
C            3.44944738412909       -1.99602862652740        1.09700090722923
C            4.58773325362962       -2.43301779204103        1.74867958519771
C            5.66495262836198       -1.57962414808506        1.97547952240324
C            5.62947272962363       -0.25348298824075        1.56907037927778
C            4.50111995625835        0.20644717927519        0.91293648682208
C            4.10807274309128        1.48833300618756        0.38476835557178
C            4.72066818849668        2.72858139083484        0.32433542720299
C            4.04558296749589        3.77322048407262       -0.29006279483036
C            2.78454170554465        3.58571701521465       -0.85106790658950
C            2.15351739360404        2.35627545153711       -0.80141555476255
C            2.81462296594867        1.31176478329869       -0.16710611992974
C            0.00002400461806        0.00721832826600       -0.04595400392856
C           -1.20885031198979       -0.55235514032846       -0.42101746061252
N           -2.41911832494929       -0.00101942945548        0.00236022551328
C           -3.42090269841275       -0.68110475768275        0.65831857565159
C           -3.44690076438965       -2.00036714394299        1.09652552098573
C           -4.58463303565811       -2.43875127620644        1.74823376909618
C           -5.66292588531251       -1.58670175044566        1.97498205114357
C           -5.62912793019170       -0.26054838298323        1.56847207623739
C           -4.50135325923921        0.20077145657353        0.91231237592984
C           -4.10991523247759        1.48311338214906        0.38405124548474
C           -4.72406062854471        2.72259063272665        0.32351129072943
C           -4.05027401353874        3.76802554403769       -0.29095806317091
C           -2.78898351026955        3.58206600310108       -0.85191986479758
C           -2.15641502515344        2.35342596574066       -0.80215053308064
C           -2.81622703451143        1.30814088531598       -0.16777118865338
H            0.00230724680922       -3.11717412896955       -2.35709904647942
H            2.61228075710358       -2.65810626127337        0.93740929600118
H            4.63930882210482       -3.45499208299498        2.09208248439517
H            6.53821902646182       -1.95733472518344        2.48537877682113
H            6.46149194972315        0.40586974270468        1.76203672752435
H            5.70490216876374        2.87617390465695        0.74099299834528
H            4.50767813676216        4.74728187231299       -0.34413668876111
H            2.29176361654442        4.41367471946743       -1.33763254464453
H            1.18530288566052        2.20801284008762       -1.25285498786593
H           -0.00061517662754        0.86804024660486        0.60770056062433
H           -2.60890918769824       -2.66140125589126        0.93693718433295
H           -4.63493056860255       -3.46077558680221        2.09167687483755
H           -6.53572030259962       -1.96548186762379        2.48489873415139
H           -6.46199886849551        0.39774309926366        1.76139285165037
H           -5.70847593275888        2.86899418689409        0.74015895901321
H           -4.51358062743316        4.74150868141799       -0.34508642250663
H           -2.29724259063191        4.41061505949259       -1.33852987832227
H           -1.18801626554079        2.20632074373896       -1.25357599404334
