  54
        -89.29849361
 N         -3.3865761422       -2.6751998860       -2.2366984109
 C         -2.4081213654       -2.2449868767       -1.7958108518
 C         -1.2166164731       -1.7378875619       -1.2843044286
 C         -0.0051437099       -2.2848626210       -1.6848641100
 C          1.2106281200       -1.7508005012       -1.2795715586
 C          2.3988665762       -2.2754628367       -1.7807219357
 N          3.3753091573       -2.7202922081       -2.2121186868
 C          1.2101458143       -0.5659602366       -0.4277660854
 N          2.4179983157       -0.0143679468       -0.0093983168
 C          3.4264803888       -0.6925083796        0.6375087517
 C          3.4661791597       -2.0170152812        1.0566254825
 C          4.6066740113       -2.4517246436        1.7049061113
 C          5.6744477666       -1.5907568363        1.9478867618
 C          5.6266607481       -0.2600839584        1.5615827221
 C          4.4955041655        0.1980941177        0.9083673677
 C          4.0908650773        1.4826115346        0.3994044327
 C          4.6916327851        2.7295575654        0.3567255928
 C          4.0101470143        3.7744582586       -0.2473555684
 C          2.7543027089        3.5812272627       -0.8184187233
 C          2.1342936005        2.3461448291       -0.7850687658
 C          2.8004387501        1.3008049531       -0.1587324468
 C          0.0035917437        0.0038257979       -0.0621021333
 C         -1.2076144428       -0.5567582934       -0.4268102166
 N         -2.4121883992       -0.0047161460       -0.0007522825
 C         -3.4250601567       -0.6917961908        0.6298604535
 C         -3.4659747340       -2.0212140331        1.0331587117
 C         -4.6115076345       -2.4657876681        1.6654911891
 C         -5.6830781834       -1.6096420180        1.9088515882
 C         -5.6336343790       -0.2740149990        1.5402530699
 C         -4.4971123577        0.1941125489        0.9036579375
 C         -4.0889122262        1.4857215121        0.4161072753
 C         -4.6904549255        2.7326687570        0.3869537601
 C         -4.0042512729        3.7874535208       -0.1940951001
 C         -2.7425377975        3.6040181481       -0.7552397917
 C         -2.1220370981        2.3687718418       -0.7359273263
 C         -2.7934131533        1.3127987551       -0.1334002760
 H         -0.0084374766       -3.1422074835       -2.3436758650
 H          2.6363360525       -2.6843926241        0.8852380541
 H          4.6680418818       -3.4776974551        2.0334857894
 H          6.5495317485       -1.9668364362        2.4555921558
 H          6.4507518135        0.4057211873        1.7673895953
 H          5.6730492187        2.8807194248        0.7794172268
 H          4.4626777683        4.7534907035       -0.2883021444
 H          2.2576929155        4.4097050038       -1.3000723683
 H          1.1713356236        2.1936931791       -1.2473510509
 H          0.0076814989        0.8692785522        0.5853770527
 H         -2.6328265545       -2.6848655105        0.8629485301
 H         -4.6738506232       -3.4956810809        1.9812997520
 H         -6.5625893422       -1.9936453575        2.4028367537
 H         -6.4610962333        0.3877405301        1.7462722130
 H         -5.6754029565        2.8765668768        0.8035101227
 H         -4.4563436742        4.7669064650       -0.2226975128
 H         -2.2410481205        4.4406834989       -1.2172786383
 H         -1.1538803927        2.2255326684       -1.1899974695
