54
 energy: -89.339409023128 gnorm: 0.000066468909 xtb: 6.7.1 (edcfbbe)
N           -3.37991573540368       -2.66183327583642       -2.26030148619200
C           -2.40222833815592       -2.22843356116458       -1.81711152196729
C           -1.21457683896206       -1.71593260984689       -1.30494488527942
C            0.00013516746135       -2.24929543619050       -1.71643346880954
C            1.21413022697303       -1.71647532719382       -1.30207739876641
C            2.40325807578251       -2.23001892488725       -1.80963744888006
N            3.38273235971203       -2.66372211664844       -2.24857387769068
C            1.20822459004098       -0.55147445817988       -0.42551115037923
N            2.41805437346369       -0.00409310222683        0.00424004991212
C            3.42006780031329       -0.69156913187057        0.65201408584082
C            3.44525260936904       -2.01521530621104        1.07681706660287
C            4.58374985206403       -2.46155755164044        1.72170241231805
C            5.66348150918328       -1.61309590580938        1.95492408102058
C            5.63018545396378       -0.28264205351010        1.56264031694173
C            4.50168565726652        0.18666374513923        0.91340971946412
C            4.11054970166027        1.47467912078840        0.39885939897079
C            4.72568104438404        2.71418153663034        0.35002499921275
C            4.05210784149066        3.76629693304062       -0.25316565586080
C            2.79003902308503        3.58704325394809       -0.81454038296797
C            2.15644082094834        2.35851783788534       -0.77629055963270
C            2.81605302614657        1.30638794417255       -0.15316785186481
C           -0.00129563953089        0.00313420450992       -0.04549933750938
C           -1.21042381523718       -0.55177102102240       -0.42723811520450
N           -2.42031311740789       -0.00517273892592        0.00281967140694
C           -3.42415338228925       -0.69338408632436        0.64721824671618
C           -3.45423714039593       -2.01979846962564        1.06303837447037
C           -4.59410415275741       -2.46628026659899        1.70544391910255
C           -5.67030895075264       -1.61528221279738        1.94560500457452
C           -5.63187090496808       -0.28215731455817        1.56303041258111
C           -4.50216202462165        0.18717886550212        0.91591242861132
C           -4.10682539716278        1.47723994533420        0.40990183362094
C           -4.71704202717979        2.71953596655266        0.37116105115983
C           -4.04053762420769        3.77317105035600       -0.22604391762114
C           -2.78066780944350        3.59262927697237       -0.79198210026796
C           -2.15190450644790        2.36137479656004       -0.76356000328946
C           -2.81394300893514        1.30772168309257       -0.14553204342783
H            0.00074921854311       -3.09645366392425       -2.38978994487640
H            2.60607081606736       -2.67352550316912        0.91226490802905
H            4.63361053530845       -3.48719448441479        2.05427693951588
H            6.53698394899269       -1.99816772919048        2.45888511765737
H            6.46419416916631        0.37265865312358        1.76075908478603
H            5.71070827815537        2.85556554463017        0.76696597657015
H            4.51621256793228        4.73987009960276       -0.29804040901390
H            2.29853922969722        4.42086216637787       -1.29233114814206
H            1.18740300394558        2.21669015021815       -1.22804388627351
H           -0.00175528376056        0.85674457796817        0.61754216063552
H           -2.61785936275986       -2.68037934044113        0.89348668516481
H           -4.64779911565758       -3.49412584189766        2.03052213653525
H           -6.54491414488467       -2.00045520396615        2.44757291732888
H           -6.46287104503562        0.37520442970557        1.76687893117133
H           -5.70053792627743        2.86196592465489        0.79135123651279
H           -4.50064256313530        4.74897530990629       -0.26279284738510
H           -2.28706999559652        4.42762090039287       -1.26554454253626
H           -1.18470035732064        2.21874995669214       -1.21895761583121
