54
 energy: -89.425774003268 gnorm: 0.000103982097 xtb: 6.7.1 (edcfbbe)
N           -3.35836689232536       -2.77910101748874       -2.17301979509385
C           -2.40682789948849       -2.32181370200445       -1.72325002815860
C           -1.20711557208533       -1.75773620736305       -1.23661043528755
C            0.00195442476679       -2.32895043025804       -1.61873380004104
C            1.20990539976286       -1.75561913917274       -1.23624929814652
C            2.41054691029075       -2.31758311717974       -1.72302316171254
N            3.36266194605590       -2.77329418635381       -2.17323969373693
C            1.21423337252459       -0.58267995672574       -0.44774323510934
N            2.40865456736783       -0.01923544152120       -0.02432399662620
C            3.44748453871707       -0.69201195246395        0.60800966040362
C            3.51489265285827       -2.00815646375763        1.03645563037745
C            4.66393558856851       -2.41525910337950        1.68989108543355
C            5.71437406051381       -1.53385794143516        1.92907553881014
C            5.63395687200538       -0.21089079030196        1.53972029553310
C            4.49029356026331        0.21902583596213        0.88065289747949
C            4.06273843779911        1.49979583071871        0.38312842633911
C            4.65914333055828        2.75295228594697        0.34107608642337
C            3.96751072182138        3.79624645294124       -0.24419192154452
C            2.70669195386312        3.59695919014901       -0.79945447796778
C            2.09589023212420        2.35631329895045       -0.77092437080917
C            2.77214520578305        1.31467089438524       -0.15692994306717
C           -0.00025810096168       -0.01092756884738       -0.08297362566058
C           -1.21359681852725       -0.58465233503241       -0.44839894590195
N           -2.40909341764465       -0.02271588353907       -0.02582970238514
C           -3.44648512400197       -0.69600008673772        0.60823714994458
C           -3.51207913107439       -2.01184462943018        1.03786927463244
C           -4.66001298768254       -2.41955596947235        1.69287228215115
C           -5.71110611313317       -1.53902179080386        1.93239974115012
C           -5.63259444771624       -0.21637850807792        1.54155851078169
C           -4.49010177346769        0.21414845252540        0.88085725428541
C           -4.06463853019301        1.49480042098909        0.38123502818897
C           -4.66258140371686        2.74718770694207        0.33793457938508
C           -3.97288473211762        3.79038650745155       -0.24978520894631
C           -2.71247086671603        3.59178587150183       -0.80623635151048
C           -2.10009560877807        2.35196062710246       -0.77637499996407
C           -2.77438997750528        1.31049966097912       -0.15991786693000
H            0.00284260965089       -3.21501061410320       -2.23696974487267
H            2.70289457218452       -2.70183020186753        0.87653442203121
H            4.74346274668573       -3.43902210104337        2.02361751505051
H            6.59723135200355       -1.89078432334587        2.43779159254439
H            6.43751770110636        0.47910388003128        1.74673520061619
H            5.64567823469377        2.90226058755123        0.75215276955139
H            4.41268232416667        4.77910507388812       -0.28391226612395
H            2.19564230062031        4.42485440956158       -1.26784994400466
H            1.13001480662106        2.20867514609133       -1.22790182116033
H           -0.00121850454780        0.86676633691497        0.54551784778824
H           -2.69956693089414       -2.70482131876147        0.87754140530416
H           -4.73814075482388       -3.44309957181742        2.02760270457914
H           -6.59299672127793       -1.89637929968557        2.44248925888912
H           -6.43669953733688        0.47293477057135        1.74873184690248
H           -5.64885090965219        2.89597167559827        0.74983717425525
H           -4.41932782218590        4.77262311857526       -0.29058366560152
H           -2.20304340589339        4.41955145061969       -1.27662456352040
H           -1.13460760938997        2.20462779559010       -1.23431381632821
