  54
        -89.38730766
 N         -3.3644635087       -2.7978705383       -2.1241680934
 C         -2.4109193011       -2.3351462158       -1.6864028533
 C         -1.2083480000       -1.7662962643       -1.2113581676
 C         -0.0018270735       -2.3417069185       -1.5927317558
 C          1.2076263514       -1.7660487401       -1.2210494367
 C          2.4068795869       -2.3324935644       -1.7072496874
 N          3.3571028957       -2.7940035106       -2.1535334147
 C          1.2156093768       -0.5867498360       -0.4439547799
 N          2.4108582484       -0.0215310505       -0.0292551899
 C          3.4535658870       -0.6926596588        0.5959770150
 C          3.5282044549       -2.0107287772        1.0165657598
 C          4.6815464536       -2.4160955398        1.6622895219
 C          5.7291033005       -1.5317563130        1.9016460336
 C          5.6413774550       -0.2072164737        1.5209428698
 C          4.4930113795        0.2212385856        0.8699029905
 C          4.0573383083        1.5023688749        0.3822932462
 C          4.6462775360        2.7586496655        0.3469491930
 C          3.9467017919        3.8018976028       -0.2279795016
 C          2.6860052059        3.5992036759       -0.7812775957
 C          2.0822881025        2.3553590826       -0.7594299470
 C          2.7659258950        1.3132958914       -0.1547161075
 C          0.0039191265       -0.0101906445       -0.0797415201
 C         -1.2104735367       -0.5859118358       -0.4356983784
 N         -2.4031401276       -0.0192788946       -0.0155073891
 C         -3.4464011320       -0.6916647755        0.6072760649
 C         -3.5146023634       -2.0063764017        1.0393446426
 C         -4.6694501416       -2.4138515948        1.6809621526
 C         -5.7248522940       -1.5346495520        1.9047650093
 C         -5.6436245477       -0.2129587616        1.5128903535
 C         -4.4935081913        0.2177124811        0.8663212895
 C         -4.0619410436        1.4975876547        0.3717827172
 C         -4.6588428630        2.7495803220        0.3216069506
 C         -3.9608087769        3.7932854577       -0.2544182848
 C         -2.6931623814        3.5951337351       -0.7933491812
 C         -2.0817713086        2.3553185447       -0.7575538049
 C         -2.7648794757        1.3126417317       -0.1533290844
 H         -0.0042807458       -3.2327839319       -2.2035194541
 H          2.7179879462       -2.7060959044        0.8573722114
 H          4.7668806998       -3.4408575172        1.9901719244
 H          6.6153960795       -1.8878363188        2.4041565743
 H          6.4422009389        0.4857027986        1.7284235896
 H          5.6332712001        2.9101233973        0.7555372261
 H          4.3855347559        4.7873075142       -0.2627267021
 H          2.1692605650        4.4271659398       -1.2427801605
 H          1.1168287925        2.2048988911       -1.2171529271
 H          0.0063708271        0.8729762737        0.5402722412
 H         -2.6980162290       -2.6970416703        0.8922072414
 H         -4.7497220071       -3.4359054071        2.0184565885
 H         -6.6120650674       -1.8922690174        2.4046772256
 H         -6.4506784649        0.4761781597        1.7086561752
 H         -5.6506306419        2.8974147989        0.7202081359
 H         -4.4058104383        4.7755198373       -0.3003355859
 H         -2.1767012859        4.4235719450       -1.2543172937
 H         -1.1104110570        2.2088017941       -1.2039406590
