  44
  -64.8364632400000       0.234959461195448      !
 C         -5.6745015065       -0.0045654098       -0.0095189398
 C         -4.9769552300        0.4184661672       -1.1287146055
 C         -3.5937787440        0.4228831546       -1.1247417011
 C         -2.8908987101       -0.0010115823       -0.0010906798
 C         -1.4125107623        0.0000767991        0.0021241112
 C         -0.7138296392       -1.2153183405       -0.0047478327
 C         -1.3878035188       -2.4645655318       -0.0415359881
 C         -0.6999233320       -3.6384789255       -0.0246885204
 C          0.7082411286       -3.6368044967        0.0335034053
 C          1.3931228610       -2.4611392950        0.0470369963
 C          0.7157427317       -1.2137993486        0.0092807250
 C          1.4120535397        0.0027450672        0.0014140132
 C          2.8906351672        0.0025450394       -0.0020444905
 C          3.5996204600        0.4103627545        1.1234698160
 C          4.9828265662        0.4044646799        1.1199552972
 C          5.6739977895       -0.0037295111       -0.0086303893
 C          4.9758107891       -0.4079803842       -1.1343093815
 C          3.5926222290       -0.4075655821       -1.1312513975
 C          0.7135652060        1.2180013591       -0.0034253652
 C          1.3883595392        2.4668716523       -0.0378899892
 C          0.7010830427        3.6410822254       -0.0190638031
 C         -0.7070537789        3.6396954318        0.0398824435
 C         -1.3925958313        2.4643391380        0.0520824227
 C         -0.7160319673        1.2166430583        0.0113031443
 C         -3.5993736313       -0.4263659643        1.1184295856
 C         -4.9825746053       -0.4255799744        1.1139553986
 H         -6.7544346452       -0.0058449945       -0.0127168856
 H         -5.5123243723        0.7470542093       -2.0076224195
 H         -3.0469103218        0.7498759958       -1.9977899373
 H         -2.4665940292       -2.4663050800       -0.0857716827
 H         -1.2272342617       -4.5807718333       -0.0528002654
 H          1.2377992733       -4.5777760170        0.0638745357
 H          2.4720001158       -2.4596479044        0.0902106853
 H          3.0576574449        0.7258875926        2.0037161236
 H          5.5232346052        0.7189915023        2.0010614856
 H          6.7539141412       -0.0071305104       -0.0107678315
 H          5.5106529039       -0.7259309141       -2.0174681646
 H          3.0451238278       -0.7208737466       -2.0088202164
 H          2.4672327332        2.4676532993       -0.0814351820
 H          1.2286536449        4.5833145093       -0.0455991491
 H         -1.2362336119        4.5808213045        0.0720714143
 H         -2.4714276721        2.4636121565        0.0964357157
 H         -3.0569812001       -0.7523599745        1.9945426057
 H         -5.5223386879       -0.7557290411        1.9895336592
  44
  -64.8364268800000       0.226090877048222      !
 C         -5.6747222094       -0.0050671108        0.0130556630
 C         -4.9837941284       -0.4617392692       -1.0968942921
 C         -3.6006709128       -0.4613050034       -1.1032577486
 C         -2.8906528049       -0.0004844844        0.0013706251
 C         -1.4127481572        0.0000621337       -0.0031194144
 C         -0.7143536687       -1.2157832124        0.0045240406
 C         -1.3888415776       -2.4644727457        0.0495565634
 C         -0.7026192696       -3.6391946397        0.0256048225
 C          0.7045440188       -3.6385965672       -0.0504266149
 C          1.3902121163       -2.4634687581       -0.0678011794
 C          0.7152039593       -1.2152604377       -0.0165903684
 C          1.4130599441        0.0009830578       -0.0033877937
 C          2.8907990465        0.0010561959        0.0012110390
 C          3.5928184243       -0.4698716413        1.1068070666
 C          4.9758929770       -0.4675208275        1.1119759712
 C          5.6750403968        0.0020353935        0.0125900121
 C          4.9845331719        0.4708685404       -1.0925355232
 C          3.6013929357        0.4719135997       -1.0989354877
 C          0.7145811906        1.2168769613        0.0068560614
 C          1.3884923398        2.4658053709        0.0547251043
 C          0.7018965634        3.6403296100        0.0327374284
 C         -0.7052860668        3.6396165093       -0.0428940216
 C         -1.3906009511        2.4642887676       -0.0619747389
 C         -0.7150068003        1.2162595168       -0.0139071793
 C         -3.5929874967        0.4586925347        1.1116143847
 C         -4.9760755139        0.4543710423        1.1170130656
 H         -6.7546208728       -0.0072718569        0.0177456311
 H         -5.5243669310       -0.8205275554       -1.9606767782
 H         -3.0593823504       -0.8139454788       -1.9696100888
 H         -2.4669799595       -2.4656736553        0.1062090970
 H         -1.2306275804       -4.5809021401        0.0601878620
 H          1.2329698008       -4.5797844185       -0.0911056129
 H          2.4683667099       -2.4640500469       -0.1245828473
 H          3.0451878526       -0.8312092602        1.9657640596
 H          5.5099832389       -0.8337005478        1.9765970653
 H          6.7549807072        0.0028220275        0.0172215945
 H          5.5254544413        0.8375828692       -1.9527627128
 H          3.0605630969        0.8334522669       -1.9620532580
 H          2.4665840999        2.4675569865        0.1115826617
 H          1.2296512100        4.5820887465        0.0694458189
 H         -1.2339714401        4.5807998131       -0.0807077921
 H         -2.4688474226        2.4642690658       -0.1176022366
 H         -3.0456472235        0.8128722588        1.9736011608
 H         -5.5105786827        0.8109195840        1.9855618517
  44
  -64.8364065700000       0.221283590102826      !
 C         -5.6748164452        0.0038984691        0.0181152174
 C         -4.9876025464       -0.3598022709       -1.1279163150
 C         -3.6043971033       -0.3651451149       -1.1366219751
 C         -2.8912110261       -0.0023774393        0.0017271550
 C         -1.4128259638       -0.0027296185       -0.0055294917
 C         -0.7146245974       -1.2171564766       -0.0617794156
 C         -1.3889798934       -2.4664446923       -0.0864156791
 C         -0.7007936163       -3.6393441577       -0.1349599642
 C          0.7084720798       -3.6373376676       -0.1498730976
 C          1.3934676184       -2.4623430388       -0.1099894016
 C          0.7150937747       -1.2157651012       -0.0680014940
 C          1.4113043025       -0.0010893173       -0.0062598957
 C          2.8904612135        0.0005146776        0.0010045632
 C          3.5877461411        0.2990144232        1.1672771773
 C          4.9708988013        0.2994838888        1.1754022856
 C          5.6733620860        0.0061866696        0.0184462947
 C          4.9865692993       -0.2898232902       -1.1470959682
 C          3.6033095174       -0.2949873191       -1.1564112082
 C          0.7136518574        1.2129109304        0.0519662187
 C          1.3906695893        2.4603668618        0.0911454283
 C          0.7043482309        3.6346147593        0.1284148076
 C         -0.7049552862        3.6349739193        0.1137104720
 C         -1.3917653485        2.4612151118        0.0683884356
 C         -0.7159225090        1.2126565723        0.0465602123
 C         -3.5894522355        0.3630435347        1.1485438781
 C         -4.9725444503        0.3639738768        1.1562194620
 H         -6.7547321222        0.0071287895        0.0243288261
 H         -5.5310084281       -0.6393452205       -2.0186013997
 H         -3.0658595244       -0.6446690113       -2.0308349158
 H         -2.4683262762       -2.4693812225       -0.0585448983
 H         -1.2286065085       -4.5816006284       -0.1523539497
 H          1.2386510127       -4.5778535522       -0.1826053279
 H          2.4732372113       -2.4605652047       -0.1033119704
 H          3.0367130226        0.5255880982        2.0687548954
 H          5.5022988967        0.5296871171        2.0872218684
 H          6.7532526851        0.0082162425        0.0252482985
 H          5.5303045473       -0.5183596749       -2.0522187438
 H          3.0647723672       -0.5253132236       -2.0647802456
 H          2.4704331844        2.4597246939        0.0845199322
 H          1.2333603470        4.5758460442        0.1589841395
 H         -1.2338765968        4.5766922907        0.1307098645
 H         -2.4710943541        2.4628401867        0.0414406392
 H         -3.0389612715        0.6411966771        2.0360287165
 H         -5.5041650783        0.6479441713        2.0528719795
  44
  -64.8363867300000       0.216686261189272      !
 C         -5.6727510517       -0.0033748009        0.0684121654
 C         -5.0041001454        0.3057509402       -1.1042322773
 C         -3.6210532067        0.3099726972       -1.1353885720
 C         -2.8904971744       -0.0002911188        0.0069377094
 C         -1.4116303863        0.0010616115       -0.0188470625
 C         -0.7142659965       -1.2137795812        0.0247838611
 C         -1.3909884877       -2.4618179014        0.0443327571
 C         -0.7041521507       -3.6361657141        0.0705082305
 C          0.7053203395       -3.6358824176        0.0702594845
 C          1.3920034814       -2.4613816589        0.0439058987
 C          0.7151836122       -1.2134093074        0.0248413410
 C          1.4120434098        0.0018819610       -0.0189124751
 C          2.8907090011        0.0009212972        0.0067438245
 C          3.5704545870       -0.3254888788        1.1760317755
 C          4.9532339418       -0.3241706381        1.2061199229
 C          5.6731249536       -0.0015900320        0.0678352524
 C          5.0040910102        0.3218704441       -1.1007652466
 C          3.6210821561        0.3255423328       -1.1317466167
 C          0.7147099030        1.2162465412       -0.0783424135
 C          1.3904569409        2.4645611128       -0.1125855616
 C          0.7031893492        3.6380118581       -0.1597522009
 C         -0.7062613373        3.6374106119       -0.1602474090
 C         -1.3922928668        2.4632536538       -0.1134266901
 C         -0.7151069203        1.2157290914       -0.0784481046
 C         -3.5697865699       -0.3125240054        1.1802993132
 C         -4.9525593772       -0.3114423961        1.2104670442
 H         -6.7524173937       -0.0047091453        0.0921446418
 H         -5.5619795330        0.5449678125       -1.9978928329
 H         -3.0966178871        0.5492971794       -2.0494605578
 H         -2.4707334872       -2.4615652264        0.0290038550
 H         -1.2329753656       -4.5780498200        0.0826439516
 H          1.2343688596       -4.5775469675        0.0818896697
 H          2.4717168101       -2.4612232176        0.0275370335
 H          3.0057017217       -0.5756827982        2.0627291685
 H          5.4706083734       -0.5765435365        2.1202658622
 H          6.7526736562       -0.0024392223        0.0914906442
 H          5.5616902983        0.5732259495       -1.9913932412
 H          3.0964457646        0.5767292121       -2.0426442414
 H          2.4700144856        2.4657131627       -0.0957931701
 H          1.2317484505        4.5796744463       -0.1877117045
 H         -1.2357000502        4.5785921458       -0.1889832779
 H         -2.4719014886        2.4629278911       -0.0980321521
 H         -3.0047440860       -0.5515633890        2.0700648901
 H         -5.4697701399       -0.5524777713        2.1277931764
  44
  -64.8356651900000       0.100979810464231      !
 C         -5.6465074277       -0.0033596606       -0.3677337003
 C         -4.8219439882       -0.4268729551       -1.3968027117
 C         -3.4498904305       -0.4339262296       -1.2270282807
 C         -2.8838050415       -0.0117575364       -0.0272170065
 C         -1.4118499622       -0.0035142240        0.1100698078
 C         -0.7132685890       -1.2181224418        0.1552168413
 C         -1.3930116219       -2.4625976505        0.2243618388
 C         -0.7098007745       -3.6390308705        0.2517308296
 C          0.6982664352       -3.6437745160        0.1915736557
 C          1.3879289314       -2.4720385853        0.1328762558
 C          0.7163809528       -1.2211308635        0.1404045034
 C          1.4123164746       -0.0044983671        0.1108960619
 C          2.8839694899        0.0079165315       -0.0271740826
 C          3.7222281841       -0.4203755768        0.9965453176
 C          5.0955712194       -0.4091609845        0.8260553310
 C          5.6468910554        0.0257920034       -0.3674601659
 C          4.8191286634        0.4566233420       -1.3909084701
 C          3.4471659797        0.4504103000       -1.2212040433
 C          0.7134684312        1.2102781982        0.1576268284
 C          1.3924401159        2.4549511934        0.2308256013
 C          0.7088031774        3.6311478504        0.2580166173
 C         -0.6990833920        3.6356860423        0.1954700614
 C         -1.3881600170        2.4637578218        0.1352977334
 C         -0.7160263531        1.2131631501        0.1415734785
 C         -3.7189015493        0.4076727707        1.0028104782
 C         -5.0922027376        0.4095470638        0.8322593916
 H         -6.7182069500        0.0035518926       -0.5007432994
 H         -5.2486327141       -0.7525389734       -2.3343517316
 H         -2.8024595495       -0.7602576602       -2.0285854450
 H         -2.4720081844       -2.4565856147        0.2693513010
 H         -1.2401766110       -4.5778560610        0.3159793781
 H          1.2245866849       -4.5870920510        0.1961322882
 H          2.4665478509       -2.4776935794        0.0877353598
 H          3.2918575447       -0.7552850470        1.9296879421
 H          5.7385186995       -0.7422125999        1.6278257621
 H          6.7186949567        0.0307432203       -0.4997514617
 H          5.2432193159        0.7983809685       -2.3238978366
 H          2.7972746027        0.7829273231       -2.0181463634
 H          2.4712877196        2.4498810315        0.2776973919
 H          1.2389290348        4.5699411397        0.3243875206
 H         -1.2257188826        4.5788136397        0.1990023289
 H         -2.4666851739        2.4690169696        0.0881286284
 H         -3.2856799864        0.7282902602        1.9396360036
 H         -5.7326260745        0.7362758434        1.6386373772
