  44
        -64.83646324
 C         -5.6745015065       -0.0045654098       -0.0095189398
 C         -4.9769552300        0.4184661672       -1.1287146055
 C         -3.5937787440        0.4228831546       -1.1247417011
 C         -2.8908987101       -0.0010115823       -0.0010906798
 C         -1.4125107623        0.0000767991        0.0021241112
 C         -0.7138296392       -1.2153183405       -0.0047478327
 C         -1.3878035188       -2.4645655318       -0.0415359881
 C         -0.6999233320       -3.6384789255       -0.0246885204
 C          0.7082411286       -3.6368044967        0.0335034053
 C          1.3931228610       -2.4611392950        0.0470369963
 C          0.7157427317       -1.2137993486        0.0092807250
 C          1.4120535397        0.0027450672        0.0014140132
 C          2.8906351672        0.0025450394       -0.0020444905
 C          3.5996204600        0.4103627545        1.1234698160
 C          4.9828265662        0.4044646799        1.1199552972
 C          5.6739977895       -0.0037295111       -0.0086303893
 C          4.9758107891       -0.4079803842       -1.1343093815
 C          3.5926222290       -0.4075655821       -1.1312513975
 C          0.7135652060        1.2180013591       -0.0034253652
 C          1.3883595392        2.4668716523       -0.0378899892
 C          0.7010830427        3.6410822254       -0.0190638031
 C         -0.7070537789        3.6396954318        0.0398824435
 C         -1.3925958313        2.4643391380        0.0520824227
 C         -0.7160319673        1.2166430583        0.0113031443
 C         -3.5993736313       -0.4263659643        1.1184295856
 C         -4.9825746053       -0.4255799744        1.1139553986
 H         -6.7544346452       -0.0058449945       -0.0127168856
 H         -5.5123243723        0.7470542093       -2.0076224195
 H         -3.0469103218        0.7498759958       -1.9977899373
 H         -2.4665940292       -2.4663050800       -0.0857716827
 H         -1.2272342617       -4.5807718333       -0.0528002654
 H          1.2377992733       -4.5777760170        0.0638745357
 H          2.4720001158       -2.4596479044        0.0902106853
 H          3.0576574449        0.7258875926        2.0037161236
 H          5.5232346052        0.7189915023        2.0010614856
 H          6.7539141412       -0.0071305104       -0.0107678315
 H          5.5106529039       -0.7259309141       -2.0174681646
 H          3.0451238278       -0.7208737466       -2.0088202164
 H          2.4672327332        2.4676532993       -0.0814351820
 H          1.2286536449        4.5833145093       -0.0455991491
 H         -1.2362336119        4.5808213045        0.0720714143
 H         -2.4714276721        2.4636121565        0.0964357157
 H         -3.0569812001       -0.7523599745        1.9945426057
 H         -5.5223386879       -0.7557290411        1.9895336592
  44
        -64.83566519
 C         -5.6465074277       -0.0033596606       -0.3677337003
 C         -4.8219439882       -0.4268729551       -1.3968027117
 C         -3.4498904305       -0.4339262296       -1.2270282807
 C         -2.8838050415       -0.0117575364       -0.0272170065
 C         -1.4118499622       -0.0035142240        0.1100698078
 C         -0.7132685890       -1.2181224418        0.1552168413
 C         -1.3930116219       -2.4625976505        0.2243618388
 C         -0.7098007745       -3.6390308705        0.2517308296
 C          0.6982664352       -3.6437745160        0.1915736557
 C          1.3879289314       -2.4720385853        0.1328762558
 C          0.7163809528       -1.2211308635        0.1404045034
 C          1.4123164746       -0.0044983671        0.1108960619
 C          2.8839694899        0.0079165315       -0.0271740826
 C          3.7222281841       -0.4203755768        0.9965453176
 C          5.0955712194       -0.4091609845        0.8260553310
 C          5.6468910554        0.0257920034       -0.3674601659
 C          4.8191286634        0.4566233420       -1.3909084701
 C          3.4471659797        0.4504103000       -1.2212040433
 C          0.7134684312        1.2102781982        0.1576268284
 C          1.3924401159        2.4549511934        0.2308256013
 C          0.7088031774        3.6311478504        0.2580166173
 C         -0.6990833920        3.6356860423        0.1954700614
 C         -1.3881600170        2.4637578218        0.1352977334
 C         -0.7160263531        1.2131631501        0.1415734785
 C         -3.7189015493        0.4076727707        1.0028104782
 C         -5.0922027376        0.4095470638        0.8322593916
 H         -6.7182069500        0.0035518926       -0.5007432994
 H         -5.2486327141       -0.7525389734       -2.3343517316
 H         -2.8024595495       -0.7602576602       -2.0285854450
 H         -2.4720081844       -2.4565856147        0.2693513010
 H         -1.2401766110       -4.5778560610        0.3159793781
 H          1.2245866849       -4.5870920510        0.1961322882
 H          2.4665478509       -2.4776935794        0.0877353598
 H          3.2918575447       -0.7552850470        1.9296879421
 H          5.7385186995       -0.7422125999        1.6278257621
 H          6.7186949567        0.0307432203       -0.4997514617
 H          5.2432193159        0.7983809685       -2.3238978366
 H          2.7972746027        0.7829273231       -2.0181463634
 H          2.4712877196        2.4498810315        0.2776973919
 H          1.2389290348        4.5699411397        0.3243875206
 H         -1.2257188826        4.5788136397        0.1990023289
 H         -2.4666851739        2.4690169696        0.0881286284
 H         -3.2856799864        0.7282902602        1.9396360036
 H         -5.7326260745        0.7362758434        1.6386373772
