  41
        -69.93486778
 C          5.3322297842       -2.8169075204        0.1162455968
 O          3.9535057606       -2.5226415531        0.0916219782
 C          3.5734181525       -1.2315202645        0.0530888849
 C          4.4092120699       -0.1601248065        0.0296113108
 C          3.9196116603        1.1936600786       -0.0083678759
 O          4.6086406674        2.1851086591       -0.0304179361
 O          2.5552398017        1.3663203883       -0.0239693730
 C          1.7078968162        0.3207918891       -0.0040190954
 C          2.1460669376       -1.0098229669        0.0368066636
 C          1.2145018933       -2.0634142328        0.0728890396
 C         -0.1376656027       -1.8326377211        0.0544258573
 C         -0.5765934203       -0.5091383955       -0.0077221948
 C          0.3338595065        0.5704433198       -0.0209079230
 C         -0.4468426318        1.7728933017       -0.0396748616
 C         -0.1210713809        3.1232855246       -0.0720566649
 C         -1.1503479398        4.0419834659       -0.1047407239
 C         -2.4825875160        3.6315165789       -0.1190827863
 C         -2.8281728618        2.2940411990       -0.0863807968
 C         -1.7995567170        1.3648330400       -0.0312822323
 N         -1.8577761094       -0.0172370646       -0.0126302785
 C         -3.0327198872       -0.7874146860       -0.0005932496
 C         -4.0207069397       -0.5360567737        0.9459648922
 C         -5.1766914875       -1.2947485280        0.9528909429
 C         -5.3516415110       -2.3096803596        0.0268493906
 C         -4.3670195049       -2.5620397757       -0.9138222673
 C         -3.2114268404       -1.8027999510       -0.9345927369
 H          5.4010442442       -3.9024028311        0.1561849366
 H          5.8140512487       -2.3867666708        0.9986381387
 H          5.8319034230       -2.4510996038       -0.7851100099
 H          5.4821108835       -0.2509600360        0.0385084973
 H          1.5968927328       -3.0701876433        0.1193171906
 H         -0.8409491603       -2.6492631790        0.0989009498
 H          0.9123673183        3.4305779208       -0.0757819906
 H         -0.9250768937        5.0974516394       -0.1288830094
 H         -3.2637478829        4.3761875203       -0.1599523113
 H         -3.8621800004        1.9849556037       -0.1134707566
 H         -3.8706043306        0.2437776791        1.6774600338
 H         -5.9416723952       -1.0959204465        1.6887178804
 H         -6.2541223930       -2.9018457238        0.0372303868
 H         -4.5019178569       -3.3493398152       -1.6401597033
 H         -2.4492709527       -1.9822256872       -1.6780440776
