41
 energy: -69.836552718889 gnorm: 0.000123093795 xtb: 6.7.1 (edcfbbe)
C            5.37001384703119       -2.77931205648006        0.10174149028875
O            3.98531365381464       -2.53612646554282        0.09383776948310
C            3.55170027525635       -1.24170288676489        0.04972276011210
C            4.41567129799215       -0.11566962049756        0.00343413939645
C            3.92081364091219        1.20791869585313       -0.02731840695998
O            4.59697683439494        2.22213901324260       -0.05734426500207
O            2.53861120473865        1.38748955640773       -0.02368925285853
C            1.69931927899413        0.32849101846217        0.00342242102318
C            2.17059928862195       -1.02580949363471        0.05022861849718
C            1.21469649474268       -2.09346327918541        0.11815328540151
C           -0.13599467228368       -1.85846569712265        0.11050893126698
C           -0.58175943106116       -0.53912620739939        0.01881794492421
C            0.34559229130392        0.55721103811557       -0.00520291328433
C           -0.44594367340037        1.76165352691123       -0.02490089004648
C           -0.11851466470364        3.10319430339404       -0.07110498914282
C           -1.15530282822215        4.03319235686975       -0.11712632804090
C           -2.47960099296843        3.62856959428779       -0.13640276012544
C           -2.82643939030461        2.28176678873176       -0.08976530359708
C           -1.79989033372661        1.35437617163819       -0.00971673966164
N           -1.86313526244792       -0.03126918331342        0.01785518903423
C           -3.03361653288671       -0.78578312266063        0.00729457045868
C           -4.08443358638809       -0.46971152234971        0.87244809762183
C           -5.24140813982675       -1.22202080246631        0.85544382068571
C           -5.36967270305107       -2.29409185297929       -0.01544141171036
C           -4.32703798507853       -2.61194832018833       -0.87373217104126
C           -3.16494435757682       -1.86779520457754       -0.86708967914857
H            5.85302602445796       -2.33436484938444        0.97745808589447
H            5.85062648353871       -2.40567716538016       -0.80800442003013
H            5.47570374672940       -3.86236842460800        0.14465528783379
H            5.48670933000185       -0.21680203467974       -0.00568673125203
H            1.60306137788555       -3.09462666803921        0.18815386755937
H           -0.83509774838111       -2.67663121054586        0.18925710858515
H            0.91432157936458        3.41092898473177       -0.07747183412107
H           -0.92090973397948        5.08626080678126       -0.15139889020765
H           -3.26364464850987        4.36846773029760       -0.19356383891924
H           -3.86110185251099        1.97876432269119       -0.13265670692892
H           -3.96830620258664        0.34175656498369        1.57467432861626
H           -6.04604740576541       -0.97773574792086        1.53271507575453
H           -6.27631292667541       -2.87898580984133       -0.02455674892501
H           -4.42545968398647       -3.44082964434642       -1.55855297880671
H           -2.36463291358874       -2.09157816329469       -1.55591212409080
