41
 energy: -69.934871569193 gnorm: 0.000074149342 xtb: 6.7.1 (edcfbbe)
C            5.33544062233888       -2.81482211539141        0.11242904982096
O            3.95633551876595       -2.52185107877130        0.09160657341559
C            3.57513869252809       -1.23104589918057        0.05385787029184
C            4.41003825651772       -0.15895017028208        0.03084103581873
C            3.91934990775675        1.19445088931546       -0.00886871114747
O            4.60770690416854        2.18639692974671       -0.02986863643259
O            2.55502692777519        1.36599229914451       -0.02421942067216
C            1.70841311837306        0.31980119269419       -0.00344633795732
C            2.14758482449326       -1.01043472564862        0.03813610144062
C            1.21664184328335       -2.06452963201892        0.07612484402514
C           -0.13574180937791       -1.83455462792525        0.05873878110234
C           -0.57568784382728       -0.51146162079356       -0.00475675200033
C            0.33428472435865        0.56852569412404       -0.02010071119751
C           -0.44683982631104        1.77064590195716       -0.03977046084262
C           -0.12126495049339        3.12099800995250       -0.07491710396723
C           -1.15070348214160        4.03952010338227       -0.10705633792419
C           -2.48283808129791        3.62876385484699       -0.11836756207793
C           -2.82812420257329        2.29121910824960       -0.08382798400247
C           -1.79937820726377        1.36212080319671       -0.02910056437170
N           -1.85709024194185       -0.02005298246052       -0.00886623700105
C           -3.03260500663085       -0.78921914403291        0.00205864459644
C           -4.02319431904391       -0.53358117862480        0.94483072958245
C           -5.18201274441088       -1.28803268231550        0.94802305421379
C           -5.35682971124793       -2.30362489548121        0.02267429447794
C           -4.36888454700664       -2.56143307776963       -0.91311016742195
C           -3.21081247585967       -1.80600068526419       -0.93064480262854
H            5.40560695646122       -3.90071670478322        0.14103052491799
H            5.81702476419537       -2.39327565083987        0.99921791684100
H            5.83447610121039       -2.43918608259573       -0.78525853489868
H            5.48296126239235       -0.24880324042141        0.04135586282531
H            1.59965040483626       -3.07100662875223        0.12342300653592
H           -0.83832990683121       -2.65166571374395        0.10510834658897
H            0.91218420038318        3.42831554625810       -0.08069474305266
H           -0.92566962725442        5.09501271156785       -0.13268691514060
H           -3.26429745568787        4.37312684892896       -0.15849254539665
H           -3.86220569852326        1.98235015474820       -0.10945996433309
H           -3.87285506791872        0.24582713878385        1.67663624482235
H           -5.94830090604446       -1.08671975347512        1.68163841685024
H           -6.26123655499955       -2.89275444339796        0.03055199275074
H           -4.50365713583980       -3.34925647938728       -1.63914498124176
H           -2.44715832880755       -1.98840537281740       -1.67188548693304
