41
 energy: -69.934871443373 gnorm: 0.000046848344 xtb: 6.7.1 (edcfbbe)
C            5.83337047109468       -1.94786905738192        0.18570242087746
O            4.42985285098513       -1.81565093918926        0.15671506962561
C            3.90326241467177       -0.57818215976516        0.09135582631746
C            4.60972304142565        0.58204109106633        0.04917474663880
C            3.96722699661961        1.86900804865135       -0.02092641741214
O            4.53725634933622        2.93290828547356       -0.05805938761214
O            2.59241576399361        1.88218194971383       -0.04864279106851
C            1.87135384688897        0.74634835842876       -0.00848993697574
C            2.45994388534490       -0.52336213152815        0.06580584886014
C            1.65580409941739       -1.67622778469616        0.12482180767722
C            0.28611156490204       -1.60351327561303        0.09644217430379
C           -0.30224962061359       -0.34159236922753       -0.00128255723597
C            0.47794939621248        0.83510123697287       -0.03833478484858
C           -0.43565731492088        1.93874861914535       -0.09245036046152
C           -0.26687142761758        3.31628081136235       -0.16037303285750
C           -1.39456678999485        4.10929854424402       -0.22270516707680
C           -2.67063274756585        3.54802864751612       -0.23173221725562
C           -2.86046129631575        2.18097133150741       -0.16450728824454
C           -1.73243959600883        1.37794456922240       -0.07934763669800
N           -1.63147226076806       -0.00078920306539       -0.02437258899598
C           -2.71138638252552       -0.89894619102121        0.00017872234457
C           -3.73240807759457       -0.73456503900171        0.93075149443251
C           -4.79749999004183       -1.61623337813886        0.94744138284855
C           -4.84770093135438       -2.66808369555142        0.04779424787791
C           -3.82920158505293       -2.83464952921040       -0.87584686685348
C           -2.76475620374212       -1.95253835689247       -0.90680904871515
H            6.25991944604813       -1.45667940552352        1.06478672430119
H            6.28947209833107       -1.53489004362958       -0.71841839277737
H            6.02760148000320       -3.01776877201147        0.23579820284716
H            5.68578101394376        0.61631261564562        0.06607161564002
H            2.15138287164825       -2.63072402191443        0.19745584428035
H           -0.31839262186393       -2.49459878077791        0.15963479734224
H            0.72448445093369        3.74013539774631       -0.16774314448692
H           -1.29189634676134        5.18268200747783       -0.27431648251713
H           -3.53192962496158        4.19638441402722       -0.29624853457488
H           -3.85196782213794        1.75468539832964       -0.18867311881956
H           -3.67802760825577        0.07505053727886        1.64292043053987
H           -5.58792204173988       -1.48521232218000        1.67129085189340
H           -5.67909645763303       -3.35620906511901        0.06605253991437
H           -3.86713278857954       -3.65076795631640       -1.58187039243321
H           -1.97924350577137       -2.06506238605014       -1.63904460063176
