41
 energy: -69.836552431922 gnorm: 0.000071905391 xtb: 6.7.1 (edcfbbe)
C            5.36226091604407       -2.79473708463398        0.08739901171858
O            3.97814762701566       -2.54864671559516        0.07151670718427
C            3.54745531704334       -1.25301155319644        0.03407089315823
C            4.41400317571112       -0.12864192341700       -0.00504729841117
C            3.92208766784817        1.19619828065423       -0.02892842354998
O            4.60068760886105        2.20899412925995       -0.05304163334648
O            2.54041809498980        1.37891168928422       -0.02466792494064
C            1.69860750154447        0.32165744668386       -0.00260938225883
C            2.16684247245924       -1.03402273177209        0.03471108069546
C            1.20860882012989       -2.10005574819793        0.09530633224615
C           -0.14148888184993       -1.86181687182275        0.09281364836928
C           -0.58432581822742       -0.54069555677375        0.01337053141985
C            0.34543113176923        0.55368423969719       -0.00598929786904
C           -0.44349927861930        1.76004289055888       -0.01338123911816
C           -0.11347455427014        3.10120759354909       -0.05103439950398
C           -1.14854344679115        4.03368500572066       -0.08437947140840
C           -2.47382178902648        3.63207703565822       -0.09948521871294
C           -2.82329508023276        2.28571052150658       -0.06167943602186
C           -1.79825720075684        1.35560576416363        0.00531824154386
N           -1.86446956432280       -0.02996921464561        0.02217729405056
C           -3.03674961614147       -0.78182134765375        0.01222250154721
C           -4.08110338392424       -0.47150198704455        0.88715973847224
C           -5.23967936252822       -1.22138111978075        0.87103997063710
C           -5.37598470297574       -2.28503908675066       -0.00888371373795
C           -4.33981684652288       -2.59699742456396       -0.87709598111331
C           -3.17606761694870       -1.85539509987806       -0.87119981653166
H            5.46545696073183       -3.87812713662546        0.12799189517033
H            5.84062803340228       -2.35316558779199        0.96736635065944
H            5.84943258571134       -2.41965100644579       -0.81826373277703
H            5.48480269208586       -0.23221466217585       -0.01439620694746
H            1.59485891313831       -3.10263110800499        0.15620205767376
H           -0.84257460997687       -2.67876826954464        0.16647998027558
H            0.91996224060065        3.40684533158936       -0.06045140255799
H           -0.91218093789957        5.08651839642767       -0.11180430642665
H           -3.25647914973505        4.37416949467073       -0.14635073099602
H           -3.85876411344734        1.98497880156343       -0.10109633693738
H           -3.95867962160071        0.33339788777745        1.59585782797167
H           -6.03929176588788       -0.98173549520141        1.55587646579729
H           -6.28385405260435       -2.86803462303522       -0.01728538334197
H           -4.44450336311315       -3.41933888145638       -1.56883204187360
H           -2.38068388883959       -2.07455064319790       -1.56719020549110
