77
 energy: -130.916433152798 gnorm: 0.000032978865 xtb: 6.7.1 (edcfbbe)
O           -4.93968201128433       -2.53717454519280       -2.42021016698459
C           -4.41537511274426       -1.88444935118642       -1.53893710632488
C           -2.96218016528377       -1.92430723761241       -1.27310581441217
C           -2.10436502344929       -2.15016735389491       -2.35127692387545
C           -0.73710059795170       -2.14629572219485       -2.17785079832800
C           -0.19395496520155       -1.93625210886225       -0.91014837663702
N            1.20052767596605       -1.91049722928284       -0.72947206028692
C            1.98941859784710       -0.98122397939784       -1.41686096901294
C            1.44264177109304       -0.00499444011674       -2.24073155906661
C            2.24951013939464        0.91048168029435       -2.89807067216495
C            3.62020290022494        0.86764987741342       -2.74332894834527
C            4.18176752101831       -0.08343751331121       -1.90617981108455
C            3.37897440343459       -0.99227613881057       -1.24069410903929
O            4.00937403901039       -1.88396168464989       -0.41257024618489
C            3.22453821905999       -2.77702196558917        0.26857684471449
C            3.87699099702367       -3.66831884410136        1.10016558778520
C            3.16137843080881       -4.62735579352915        1.79956896741007
C            1.79286173944536       -4.70220156841558        1.63880808138173
C            1.13465795929326       -3.81291475035359        0.80345337666542
C            1.83162902569959       -2.81967593730196        0.12716157660378
C           -1.04963033984478       -1.76004021764625        0.17605486979588
C           -2.41690640744805       -1.75041725035347       -0.00162911982425
C           -5.22190704652729       -0.93148335864007       -0.71509441149745
C           -6.61728259950438       -0.97752424318653       -0.75181359583861
C           -7.32867735894794       -0.03831301502651       -0.02340706165630
C           -6.63234879800480        0.90827732700915        0.70999764030919
C           -5.23635109218743        0.87687125769420        0.68311312257525
C           -4.44554188557816        1.83837669897465        1.51225107176071
O           -4.98237889942902        2.48495478759346        2.39049511589221
C           -2.99131403382257        1.89434782589804        1.25511121677725
C           -2.43660980606621        1.72669414418715       -0.01312742382802
C           -1.06845852502430        1.75052935870422       -0.18261574212563
C           -0.22125194400052        1.93507029435193        0.90882547753453
N            1.17452825307029        1.92256997478966        0.73693433477202
C            1.96777436046278        1.00120515583904        1.42996370038780
C            1.42509936869732        0.02044480503845        2.25117358276271
C            2.23638248461351       -0.88713859433873        2.91399156657333
C            3.60752654620242       -0.83177160988575        2.76750901596702
C            4.16533293961560        0.12409245745861        1.93329087813249
C            3.35823679897036        1.02513450720206        1.26242223392883
O            3.98547254266145        1.92238803499184        0.43792443512168
C            3.19675494612008        2.80896344466398       -0.24719569358004
C            3.84621116184407        3.70737796016757       -1.07344964706084
C            3.12617744183081        4.66048594966041       -1.77641096177943
C            1.75597075117516        4.72216359151928       -1.62466185180608
C            1.10071295779812        3.82570388260098       -0.79466343374755
C            1.80262099945587        2.83842443809627       -0.11477088945281
C           -0.77421839701449        2.13958727830471        2.17318802756173
C           -2.14245362985688        2.12916546299026        2.33843058864102
N           -4.56050232658026       -0.02379323274012       -0.01363124582108
H           -2.53272243916605       -2.31971537880229       -3.32798346840029
H           -0.07921808071565       -2.31700135455166       -3.01737391055762
H            0.37340700429949        0.03625163826148       -2.37446897565540
H            1.79532556691837        1.66008707250505       -3.52766994885765
H            4.25220241798619        1.57355890862376       -3.25742818020083
H            5.24640077605401       -0.13264896480630       -1.74516815396780
H            4.94972601439479       -3.59650568642054        1.17986618513333
H            3.67774607239846       -5.31547857634331        2.45003266084435
H            1.22250264226014       -5.45848319894635        2.15585491446775
H            0.06869783764006       -3.90472384449859        0.66831574169119
H           -0.62931976331656       -1.62120573079406        1.15972586808522
H           -3.06138933798731       -1.61669857436785        0.85154934121997
H           -7.10454160745753       -1.73780613314064       -1.34204661596451
H           -8.40890397959886       -0.04398975796029       -0.02721480880801
H           -7.13173264845488        1.66338052736829        1.29673373926071
H           -3.07454756016132        1.58657835098129       -0.87019605867843
H           -0.64088145512544        1.61631385438745       -1.16380646699999
H            0.35552195003790       -0.03063215868880        2.37858165447481
H            1.78530146721657       -1.64045247325944        3.54138959724036
H            4.24288060423177       -1.53152439075908        3.28586552677803
H            5.23042612724339        0.18312341030901        1.77876299480652
H            4.92007386391052        3.64575502503883       -1.14618741852241
H            3.64029993848786        5.35429062562950       -2.42260552293432
H            1.18192379428299        5.47359942332717       -2.14468507902076
H            0.03303650171306        3.90712137458073       -0.66654962474307
H           -0.12319013580104        2.31711748889075        3.01662781977888
H           -2.57840661221976        2.29403024197081        3.31257265764354
