77
 energy: -130.857455839819 gnorm: 0.000093079085 xtb: 6.7.1 (edcfbbe)
O           -4.94783313519373       -2.63808818442344       -2.35205604707862
C           -4.41802456371463       -1.92136050787180       -1.49844962028345
C           -2.96336663003162       -1.95272284984316       -1.25839138402798
C           -2.12749416944917       -2.34037390230144       -2.31309426038550
C           -0.75790997857932       -2.34906776217806       -2.16477971972234
C           -0.19067049093069       -1.98524655270559       -0.94523015881420
N            1.21897569336791       -1.94765503086539       -0.78480809939560
C            1.97563647681622       -0.99515395670240       -1.45549626582033
C            1.40264748290146       -0.05533663098388       -2.30737821286523
C            2.18418000089309        0.89226960179838       -2.94560907073200
C            3.55402190004130        0.91233038663914       -2.75647857785428
C            4.14321282288845       -0.01544556491822       -1.91250334227513
C            3.36583694368439       -0.95595807321366       -1.25972341899549
O            4.00933725293392       -1.82873106650387       -0.42581294821187
C            3.24825188391052       -2.74816936108779        0.24198624669078
C            3.91040536074609       -3.62203021558427        1.08653279879714
C            3.20328326539241       -4.58915108580210        1.78156662093594
C            1.83339296790869       -4.68663721931190        1.61608635267351
C            1.16479586714855       -3.82008235399658        0.76934718872051
C            1.85605534656514       -2.82859830569890        0.07955213691512
C           -1.01470832675236       -1.65313790546219        0.12638065953219
C           -2.38360357101319       -1.63768196561439       -0.02701707023357
C           -5.20496044159270       -0.95495483633759       -0.71670471372486
C           -6.61132131344999       -0.98215827419485       -0.75900839036569
C           -7.30702930542027       -0.03756748989477       -0.02402302888645
C           -6.62599741716407        0.91390448951102        0.71555805053849
C           -5.21905872217257        0.90112843740453        0.68276213519378
C           -4.44745935713982        1.87519894302380        1.46989008860891
O           -4.99040776967686        2.58630144795702        2.32022313815854
C           -2.99172938498650        1.92166388049998        1.23962213619878
C           -2.40051360897906        1.61249926621891        0.01217597244481
C           -1.03089348285351        1.64217752045643       -0.13217387587815
C           -0.21747179519676        1.98299593846652        0.94481502162711
N            1.19353334369615        1.95997702194248        0.79375328334039
C            1.95549887284042        1.01536412072773        1.46953546510039
C            1.38653736843291        0.06956153353644        2.31748884438911
C            2.17353839775385       -0.86988425468333        2.96103342271520
C            3.54478065617884       -0.87561356169651        2.78127462273884
C            4.13001126196670        0.05831363275194        1.94133616926213
C            3.34733657995702        0.99069094941007        1.28323865101689
O            3.98734682821125        1.87018304840689        0.45371363099669
C            3.22128145347536        2.78179393851242       -0.21911000305809
C            3.88000964497553        3.66270879680719       -1.05899340158207
C            3.16757710473202        4.62257259514725       -1.75865136740156
C            1.79564244505391        4.70570976793234       -1.60250742775727
C            1.13037341038186        3.83202271463998       -0.76049295040149
C            1.82724710872227        2.84768105356754       -0.06612770536445
C           -0.79655576781797        2.34111176770316        2.16049647101603
C           -2.16691143316531        2.31823552986993        2.29975318679743
N           -4.58368889880154       -0.02373069743151       -0.01491992061017
H           -2.58302431679088       -2.62174484970072       -3.25046646450117
H           -0.11747159388097       -2.63469315477169       -2.98675112549599
H            0.33784354278116       -0.07906198153531       -2.47579255667837
H            1.71552049809943        1.61589010395532       -3.59423782003230
H            4.16403444421454        1.64399637280633       -3.26071924393905
H            5.20667474331562       -0.02213070895934       -1.73750616183234
H            4.98039593893127       -3.52946159649896        1.17953155036890
H            3.72478205286172       -5.26588779029439        2.43954474283266
H            1.27512164262516       -5.44545129919544        2.14184909536182
H            0.09965625189051       -3.91566808720145        0.63185613806969
H           -0.56758371757099       -1.40838849662324        1.07738922393938
H           -3.00505222945675       -1.38535193904676        0.81673367844080
H           -7.09307223054244       -1.74144187338970       -1.35356224848749
H           -8.38770813070471       -0.04303413012339       -0.02773068308295
H           -7.11940736081359        1.66822580620531        1.30686510097760
H           -3.01370529679753        1.35368476351551       -0.83563987126143
H           -0.57496449809905        1.40202425622383       -1.08016959692331
H            0.32041986521226        0.08220889143497        2.47863537410075
H            1.70804284373272       -1.59840149463674        3.60645100480992
H            4.15894301787225       -1.60087592370326        3.28970975646027
H            5.19451811854587        0.07611857778374        1.77362500592652
H            4.95151507337035        3.58132934155107       -1.14473181814367
H            3.68645548044715        5.30487929881474       -2.41293849371386
H            1.23307671264464        5.45877127884810       -2.13195057648084
H            0.06337712256875        3.91641038393019       -0.63025497277116
H           -0.16456733733281        2.63346232147007        2.98663216407228
H           -2.63155538730234        2.59498574518498        3.23401671347471
