  77
       -130.91642064
 O         -4.9305523931       -2.5381851965       -2.4086804731
 C         -4.4078022906       -1.8819691464       -1.5290443765
 C         -2.9542188593       -1.9165104566       -1.2650548021
 C         -2.0973170530       -2.1438096618       -2.3437032666
 C         -0.7299190847       -2.1399611503       -2.1716477447
 C         -0.1857097682       -1.9300525592       -0.9044247741
 N          1.2090185833       -1.9105325902       -0.7240514614
 C          2.0021654043       -0.9865638358       -1.4134313894
 C          1.4585621114       -0.0020129302       -2.2293999065
 C          2.2693893684        0.9084503146       -2.8888797827
 C          3.6407232605        0.8521066464       -2.7439160314
 C          4.1993616965       -0.1074838602       -1.9145186580
 C          3.3927696858       -1.0115527955       -1.2471872346
 O          4.0201900295       -1.9128501780       -0.4272411722
 C          3.2312131603       -2.7998874964        0.2571554144
 C          3.8806852343       -3.7004107520        1.0810678406
 C          3.1604905790       -4.6535733918        1.7838995144
 C          1.7899890809       -4.7129438270        1.6345747811
 C          1.1346470800       -3.8147164282        0.8064797240
 C          1.8367890532       -2.8278777970        0.1263391840
 C         -1.0403321464       -1.7499731283        0.1819314321
 C         -2.4077937371       -1.7389025043        0.0053804838
 C         -5.2178554587       -0.9315520775       -0.7058482995
 C         -6.6130279321       -0.9873893623       -0.7381129648
 C         -7.3288196554       -0.0482171521       -0.0140372807
 C         -6.6368408244        0.9075896099        0.7115064337
 C         -5.2407638761        0.8838819302        0.6828660427
 C         -4.4543071571        1.8534340064        1.5066681194
 O         -4.9940981886        2.5049100601        2.3793070991
 C         -2.9994568699        1.9091635233        1.2524879817
 C         -2.4429018978        1.7422996904       -0.0150212314
 C         -1.0744755671        1.7654147549       -0.1819643716
 C         -0.2291910212        1.9467531644        0.9115270246
 N          1.1669112862        1.9327478710        0.7411148261
 C          1.9585389059        1.0034839218        1.4250892745
 C          1.4154527853        0.0249411481        2.2486013602
 C          2.2253145724       -0.8919540993        2.9003854734
 C          3.5954907060       -0.8471213788        2.7416392324
 C          4.1536215218        0.1080109865        1.9067067368
 C          3.3478259344        1.0175379239        1.2458062118
 O          3.9751386577        1.9131249350        0.4193943724
 C          3.1879661720        2.8110792371       -0.2526378347
 C          3.8371006932        3.7112966937       -1.0771397116
 C          3.1182516595        4.6757536783       -1.7658513910
 C          1.7498530384        4.7467468100       -1.6019391263
 C          1.0948482369        3.8481252964       -0.7741115190
 C          1.7952556646        2.8500643040       -0.1085220152
 C         -0.7839333467        2.1504528747        2.1750548614
 C         -2.1526318873        2.1420474458        2.3376347631
 N         -4.5605202567       -0.0163857640       -0.0103073357
 H         -2.5267558701       -2.3156523471       -3.3195259269
 H         -0.0728166896       -2.3118151518       -3.0115522780
 H          0.3885498643        0.0493784059       -2.3551792352
 H          1.8179063053        1.6651031840       -3.5120494912
 H          4.2756582310        1.5544937440       -3.2592284185
 H          5.2646373318       -0.1672816601       -1.7615385541
 H          4.9548825346       -3.6401172088        1.1526442960
 H          3.6747304932       -5.3488508689        2.4284216772
 H          1.2155753426       -5.4639863440        2.1549365679
 H          0.0666843508       -3.8947067283        0.6801461685
 H         -0.6187415100       -1.6092706683        1.1647169666
 H         -3.0514583179       -1.5999711868        0.8583877791
 H         -7.0967572032       -1.7546684819       -1.3221859127
 H         -8.4089962842       -0.0605735925       -0.0156485083
 H         -7.1396925109        1.6639876989        1.2936002517
 H         -3.0797446138        1.6041996209       -0.8732695221
 H         -0.6450447778        1.6339213272       -1.1627851132
 H          0.3466963266       -0.0170905125        2.3863619733
 H          1.7738700760       -1.6441018776        3.5289741006
 H          4.2298399876       -1.5542926860        3.2511247444
 H          5.2178524546        0.1593383383        1.7433432714
 H          4.9097832396        3.6421978978       -1.1598261356
 H          3.6321219068        5.3708933114       -2.4107917578
 H          1.1772423472        5.5069740406       -2.1106767689
 H          0.0287717446        3.9356023042       -0.6364839599
 H         -0.1341984281        2.3258839458        3.0199353794
 H         -2.5902887185        2.3057140554        3.3112294281
