77
 energy: -130.857470252233 gnorm: 0.000092807592 xtb: 6.7.1 (edcfbbe)
O           -4.97342480691477       -2.70304971555182       -2.23509085226940
C           -4.43499134472829       -1.95498131890109       -1.41431893625739
C           -2.97885554068263       -1.98321785256335       -1.18327906356968
C           -2.15210803756635       -2.41178860990200       -2.22926030686963
C           -0.78147123601272       -2.41887906122247       -2.09097516315324
C           -0.20444475633779       -2.01308199737027       -0.88946296028042
N            1.20661462241384       -1.97037411259931       -0.74194449683499
C            1.95634167237366       -1.03718172891422       -1.44654232205179
C            1.37554140917656       -0.12668609726364       -2.32466261855685
C            2.15019756562658        0.80407143217116       -2.99522689008628
C            3.52079568620455        0.83551651147323       -2.81319105948355
C            4.11797304491714       -0.06470871834195       -1.94528489967723
C            3.34753714230609       -0.98770922374903       -1.26015820956429
O            3.99873969437933       -1.83332978147594       -0.40452524027284
C            3.24485563354043       -2.73639334884648        0.29313747138488
C            3.91522896603178       -3.58511248218415        1.15654570159374
C            3.21525988942734       -4.53362556624450        1.88373518802151
C            1.84417493135516       -4.63719329936697        1.73262430310829
C            1.16737059817508       -3.79589338007157        0.86711340775053
C            1.85173048974959       -2.82408699469244        0.14338636588561
C           -1.01945186583623       -1.64121494206578        0.17591815560923
C           -2.38942623555296       -1.62622574453146        0.03188111586327
C           -5.21283010804953       -0.95448527836919       -0.66736339955721
C           -6.61938423081620       -0.97680317614220       -0.70372850384710
C           -7.30863436482314       -0.00021457773862       -0.00551901423637
C           -6.62048055232088        0.97682994539603        0.69288197948931
C           -5.21377408639231        0.95559196477680        0.65712746291474
C           -4.43742240397601        1.95680608100187        1.40443079486589
O           -4.97747402300051        2.70553228010734        2.22379353508497
C           -2.98092522652899        1.98496033920525        1.17614370574484
C           -2.38881111197105        1.62562787907715       -0.03703925509480
C           -1.01852043797499        1.63990794780884       -0.17793907534842
C           -0.20590493705541        2.01349235824550        0.88865431390521
N            1.20552616005858        1.96937180085248        0.74470819205820
C            1.95225024035311        1.03535697688075        1.45132567727154
C            1.36788945808989        0.12554578827397        2.32778141108527
C            2.13961094488496       -0.80613460531448        3.00044255686819
C            3.51068262399538       -0.83910257297329        2.82221516855050
C            4.11136250434001        0.06054661165566        1.95611240697173
C            3.34391542057482        0.98446034140594        1.26887127803875
O            3.99834954333499        1.82960732613318        0.41521346275556
C            3.24727559329004        2.73305026937573       -0.28500493440655
C            3.92075636106403        3.58083419707033       -1.14690891453801
C            3.22356903238775        4.52948086326239       -1.87660392062429
C            1.85210188000948        4.63408119773662       -1.72964361341253
C            1.17216791419589        3.79376371170712       -0.86563662955601
C            1.85379016981547        2.82199821530813       -0.13929560454332
C           -0.78552007294642        2.42198659719963        2.08800441596765
C           -2.15645088448539        2.41559330249958        2.22314727875822
N           -4.58419530269395        0.00073769748316       -0.00494677509420
H           -2.61552624121609       -2.72539294174406       -3.15242323619953
H           -0.14785285950603       -2.73506452310787       -2.90701075481848
H            0.31017624755882       -0.16045324252939       -2.48798016025547
H            1.67551837272938        1.50528107251733       -3.66377207148265
H            4.12529503983562        1.55406353033357       -3.34231518944773
H            5.18239447984927       -0.06252558970297       -1.77614863973805
H            4.98568568861251       -3.48788425344051        1.23885412158689
H            3.74322386326374       -5.19104870359415        2.55598978854098
H            1.29139216662108       -5.38134217398286        2.28448150500499
H            0.10119842928926       -3.89607330034584        0.74125381407753
H           -0.56411966634350       -1.36472252797656        1.11422021637247
H           -3.00423337049493       -1.34123391056437        0.87011141760675
H           -7.10635727461511       -1.75725952075642       -1.26576675393108
H           -8.38931748909651       -0.00063838075335       -0.00576109781472
H           -7.10814946608850        1.75699715189901        1.25472619270482
H           -3.00175053844075        1.33924484497837       -0.87615782316248
H           -0.56106570785743        1.36145689216641       -1.11462499147506
H            0.30210138923364        0.16067542982660        2.48806285838355
H            1.66230820151601       -1.50686868220476        3.66761980966544
H            4.11285097314200       -1.55841396773255        3.35295819594937
H            5.17626590018509        0.05717903513178        1.79005696320772
H            4.99137293253751        3.48277413880705       -1.22610419729541
H            3.75394635054250        5.18618908396949       -2.54765647206269
H            1.30149363962047        5.37827451065074       -2.28361067878853
H            0.10567974293681        3.89460017714575       -0.74297496790909
H           -0.15362679546464        2.73949745799822        2.90485989517559
H           -2.62196862900399        2.73118850220926        3.14456741411261
