123
 energy: -185.188614169160 gnorm: 0.000177346073 xtb: 6.7.1 (edcfbbe)
C            7.98156863220875       -0.76983197123537        2.06887508604144
C            6.91454268877838       -0.87002165768293        0.96271093623919
C            7.22893847091341       -2.04885214805068        0.02283814337617
C            6.93183028854530        0.41773907188590        0.16011740917246
C            8.09822118623857        0.79655431638674       -0.48623355159116
C            8.20503001472882        1.97159803024795       -1.22285252147588
C            9.45774153463017        2.32500681495493       -1.90493601188950
C           10.69192107637626        2.10957635858918       -1.29415052940789
C           11.86776767909484        2.44315253169992       -1.94055203486772
C           11.83327798643251        2.99503359271197       -3.21060327588175
C           10.61281656503049        3.21445900742499       -3.82820208548998
C            9.43621242523796        2.88452902906259       -3.18148521206962
C            7.09071542715045        2.80333406699000       -1.28462311024549
C            5.92279458597571        2.45538923838821       -0.64339580006340
C            5.81496667165603        1.25483689721349        0.06544495799187
N            4.61993660688737        0.92466166280615        0.69169664968318
C            3.51659573100730        1.80609553788104        0.58009743155300
C            2.82260531543882        1.90402366158946       -0.62511364944106
C            1.75058868546808        2.77071687501383       -0.73526019295271
C            1.38007047364214        3.53109604085695        0.35899589718943
S           -0.02336437695850        4.63869963538889        0.19704240398936
O            0.15289466216981        5.44334039565157       -0.99244409781251
O           -0.20306457877747        5.34539250860970        1.44661389239389
C           -1.41961584191250        3.53924364011050       -0.05365083170087
C           -2.06456778899363        3.50933352933528       -1.27540662282782
C           -3.13147605815155        2.64778690493615       -1.45782970728672
C           -3.53932148879913        1.81721554759067       -0.41607243937873
N           -4.63214933298072        0.93608137617535       -0.60325060918627
C           -4.47368687875711       -0.17091847478018       -1.42714537477091
C           -3.22272354673945       -0.45029192345119       -1.98591361563361
C           -3.03678608801442       -1.53485947776447       -2.81407056575576
C           -4.09858461680742       -2.38246453266381       -3.11568760237695
C           -3.92635558750004       -3.53575716695994       -4.00998513048769
C           -2.78123712323563       -4.32737458799230       -3.93977538687143
C           -2.62293859542345       -5.41587138763207       -4.77755431581288
C           -3.60313491269100       -5.73163701947923       -5.70415317368887
C           -4.74384096080005       -4.95004124095071       -5.78648363280621
C           -4.90512421886688       -3.86352064527949       -4.94674487083874
C           -5.33161104574230       -2.11301685770663       -2.53079762424539
C           -5.54221825838833       -1.03654575377168       -1.68332155539124
C           -6.90848179429131       -0.84659090890292       -1.05151782662119
C           -7.95150293026362       -0.66775784713113       -2.17052425929837
C           -7.23755679170739       -2.09297713695516       -0.20879570349626
C           -6.94900789239213        0.37592292874762       -0.15341504852515
C           -8.12636791431362        0.69142368750691        0.50660443344407
C           -8.26109145379465        1.81733760066986        1.31227745443666
C           -9.52863701848113        2.10747738995694        1.99687156716818
C          -10.02080042440322        3.40983599321894        2.06315959905794
C          -11.21293590139090        3.68222449767341        2.70835914918917
C          -11.93442089213144        2.65954297023758        3.30223863232837
C          -11.45459417643778        1.36133770929038        3.24522820592767
C          -10.26452138649534        1.08703268793074        2.59704886390560
C           -7.16203985679748        2.66199416341065        1.43741510829588
C           -5.97675911797510        2.36505610892058        0.80219625465826
C           -5.84298662577592        1.21553004774321        0.01748841647991
C           -2.87481181742432        1.85525857257031        0.80901955902102
C           -1.81115582848679        2.72036010535765        0.98988901752648
C            2.05406381801436        3.44090838637548        1.56190602407287
C            3.12941493941445        2.57758052633317        1.67371170162542
C            4.48745235963668       -0.23425891918909        1.44549065705504
C            3.25545850927685       -0.55111593537375        2.02611675624130
C            3.09686185033584       -1.68634814807758        2.78949981893311
C            4.16151178649726       -2.56201036719363        2.98101093205924
C            4.01481474787502       -3.77623349549724        3.79587862929367
C            4.58467600369757       -4.98204591468361        3.39101232288860
C            4.44983627916989       -6.12142187986764        4.16262729522729
C            3.74704648460939       -6.07652027627160        5.35553586430603
C            3.17490056691284       -4.88423153953577        5.76817745244888
C            3.30528218514638       -3.74518925675931        4.99526829820863
C            5.37294567614513       -2.25617302984722        2.36974018942646
C            5.56272165991355       -1.11432907248259        1.60697450252793
H            7.77019795069751        0.08257492507822        2.71241777401257
H            7.99133618821157       -1.66709103720062        2.68136218464584
H            8.97175182719640       -0.64017306903838        1.64138439087546
H            6.45612785544086       -2.13209510618895       -0.73944598150576
H            8.18500236080456       -1.90603985727299       -0.47289076040005
H            7.26984797487295       -2.98355376899499        0.57479300182851
H            8.96073907947753        0.14994197928312       -0.43738333420690
H           10.72833319095935        1.69770168444130       -0.29587149562822
H           12.81648253548240        2.27486074043543       -1.45062539851998
H           12.75248279667054        3.25384519801665       -3.71595543518524
H           10.57849680921370        3.64250044858947       -4.82021077310857
H            8.48860813780494        3.04387130513716       -3.67592161679899
H            7.14452089867552        3.74268113861287       -1.81478051109740
H            5.08189811863871        3.13028799726603       -0.68640257403439
H            3.13289911837377        1.30325599481866       -1.46654350400602
H            1.20484665157002        2.87217342443217       -1.65982103625966
H           -1.72903545501341        4.17205502783591       -2.05778479460018
H           -3.65308602702821        2.61174951047727       -2.40223136229674
H           -2.38329973460436        0.19059131563840       -1.76484869356294
H           -2.06285303993223       -1.71224415121547       -3.24531345354321
H           -2.01993718525275       -4.09828803297619       -3.20793825185870
H           -1.73182120196375       -6.02352551866913       -4.70592972886314
H           -3.47868843423677       -6.58216316946111       -6.35873738148290
H           -5.51007331881069       -5.18728592299289       -6.51106801070837
H           -5.78989057294069       -3.24877917938977       -5.03011377089963
H           -6.14622462000348       -2.79103841766019       -2.73367484597390
H           -7.70715506745947        0.20807569722958       -2.76943991887941
H           -7.97140983470311       -1.53607534240807       -2.82305267875251
H           -8.94656308947972       -0.53159230622748       -1.75630000401086
H           -8.22361724932920       -2.00797298436026        0.23891495086959
H           -7.21901117669068       -2.99133350989394       -0.81938439196182
H           -6.50528749949060       -2.20557122432652        0.58895923399384
H           -8.98912274667036        0.05621352258501        0.37743695920485
H           -9.47214455794986        4.21092010439469        1.58872660330753
H          -11.58312907571239        4.69713230138744        2.74631977310023
H          -12.86515821010816        2.87346675442418        3.80745836142401
H          -12.01005492363508        0.55936373414270        3.71083508029260
H           -9.88825705086927        0.07432755459178        2.57357030297546
H           -7.22623610416562        3.54781223029145        2.05184486899013
H           -5.14160987775384        3.03934848015139        0.91282663452505
H           -3.20067493561655        1.20937678728165        1.61022171989014
H           -1.28762074475247        2.77640238317194        1.93104488402377
H            1.73304720975871        4.05924284948032        2.38555042223576
H            3.67386904238492        2.49576023459967        2.60222739249306
H            2.40841005372254        0.09902811656613        1.87078638904836
H            2.13051368581194       -1.90803560150483        3.21752910874128
H            5.11932617211412       -5.03046024665030        2.45323633391223
H            4.89335289606292       -7.04998320063566        3.83164713728855
H            3.64448363730942       -6.96641081027061        5.95964360802534
H            2.62694972116914       -4.84200891816361        6.69901632680472
H            2.87013360508393       -2.81499972795856        5.33173318737165
H            6.19974876449336       -2.93335341115546        2.51894953508963
