123
 energy: -185.108287778907 gnorm: 0.000104721950 xtb: 6.7.1 (edcfbbe)
C            5.01087365667193        2.37016931330486       -2.35056802106100
C            4.55455951120386        1.77043433148665       -1.00626083594592
C            4.84802931511073        2.75604685932509        0.14129864567109
C            5.32754140166945        0.49129429809494       -0.75988708083681
C            6.70920508230230        0.52762425972757       -0.69778094256266
C            7.48517944854622       -0.60935896422801       -0.47635072109671
C            8.94591872101652       -0.52167773668550       -0.40916267127482
C            9.66490173233118       -1.30281927121902        0.49749356716845
C           11.04233001644078       -1.21746170918058        0.56546159180589
C           11.73128378675466       -0.35716488198392       -0.27502364092377
C           11.03004136458528        0.41991862751927       -1.18348270304462
C            9.65210696023510        0.34140646201811       -1.24913611065133
C            6.82619900108993       -1.83383165493887       -0.32765759161328
C            5.45691030619213       -1.90113679875681       -0.39182086144947
C            4.68306853253887       -0.74697162146622       -0.59340200950801
N            3.31133254735775       -0.84821659709625       -0.63842177077443
C            2.69644974115033       -2.11354204750615       -0.41392269984734
C            2.54998969464545       -2.59719428092166        0.89514934508875
C            1.88485859666765       -3.77662249267555        1.11965674101323
C            1.36516510464169       -4.50606932727819        0.04209782612680
S            0.09419352222058       -5.69214927267616        0.34782765707155
O            0.33771688248225       -6.38924489142752        1.60229605232882
O           -0.09637992949630       -6.52303163716537       -0.83229563271103
C           -1.25306615387125       -4.56969966493063        0.53695567816004
C           -1.51787271598366       -4.03277964912960        1.80469582073449
C           -2.23996676360593       -2.87168586194552        1.92489446165566
C           -2.68947632524938       -2.20457426410559        0.77531025186399
N           -3.32957317145299       -0.93829887492521        0.86734404656481
C           -2.57572783890006        0.17368624931342        1.18038944750923
C           -1.23715901157018        0.02792549433852        1.57997389364467
C           -0.46847015324039        1.11628009451728        1.90524088995278
C           -0.99298715758516        2.41080802340368        1.82870582033956
C           -0.19009974345110        3.57504762072283        2.20068131484255
C            1.18977750319522        3.59313769141738        1.98269455589673
C            1.94902453559628        4.68731344359995        2.34947717430341
C            1.35140125830559        5.78713886117083        2.94527231687674
C           -0.01585343899082        5.78109398223347        3.17208903993108
C           -0.77809759442416        4.68913771513891        2.80486365717750
C           -2.31354461381999        2.54827690771299        1.39885484620305
C           -3.11898527967666        1.46862234605835        1.08400113066774
C           -4.54178463278694        1.70857643181369        0.62281019793377
C           -5.27768780885355        2.53433730924891        1.69571078516227
C           -4.50495455678436        2.48195266835095       -0.70935664907858
C           -5.29153019002525        0.41128142288711        0.40393385171221
C           -6.62457729917837        0.44078631597691        0.03793955407157
C           -7.37347075463592       -0.71564934849346       -0.18454948686424
C           -8.77846063795749       -0.63789011791398       -0.58476855319972
C           -9.30892602915209       -1.55033631771287       -1.50023936277129
C          -10.63410065333407       -1.47690872518111       -1.88313893676041
C          -11.46095902238585       -0.49692095562813       -1.35580198251166
C          -10.94888848939425        0.41199658463654       -0.44281531643514
C           -9.62228849023190        0.34596025484436       -0.06360841962258
C           -6.73925611507839       -1.95114575515251       -0.00551562452778
C           -5.41705102782011       -2.01073795624628        0.35291929644983
C           -4.66244452481742       -0.83973392535965        0.54059104205076
C           -2.46556782793010       -2.76782263799582       -0.49159379752131
C           -1.75415226583251       -3.93395847572983       -0.60855527267168
C            1.54096416035477       -4.03805797402257       -1.26786238874181
C            2.20614373571246       -2.85894145058773       -1.49467751897389
C            2.50875756797890        0.24529864875861       -0.88144277887417
C            1.11429918179945        0.09018341933549       -0.93406070394406
C            0.28931435710572        1.15963319769745       -1.17718130237573
C            0.81736779014427        2.44114476512718       -1.35673381575934
C           -0.05550549812870        3.59077455712577       -1.59989839940127
C            0.24449315344183        4.84771260503781       -1.07157089827534
C           -0.58813581712520        5.92656469889615       -1.29806415256313
C           -1.73107547252767        5.77823494027682       -2.06776526674059
C           -2.03645581880807        4.53780497898539       -2.60577031784588
C           -1.21177305340528        3.45465326571425       -2.37042147649178
C            2.20282479438057        2.58849286516110       -1.28896327127453
C            3.06060012013628        1.52609109935955       -1.06382616093536
H            4.81521888751695        1.66616332482293       -3.15733788072759
H            4.47814957627008        3.29228590553040       -2.56288368838837
H            6.07448738415587        2.58780806092667       -2.33421508534454
H            4.32301511000242        3.69325387592033       -0.01700254587502
H            4.52332254308121        2.33018092280852        1.08892627114289
H            5.91163306378075        2.96579154775581        0.20707628666131
H            7.21680822372112        1.47367020778281       -0.80057284273361
H            9.13535480758420       -1.96219951282446        1.16969793603819
H           11.58296175241277       -1.82366151527389        1.27833489336927
H           12.80834097535351       -0.29376214518336       -0.22272520742012
H           11.56231391925449        1.08710721420408       -1.84639870038799
H            9.11779725168145        0.93306990034884       -1.97784263901784
H            7.39612262874280       -2.73996346339940       -0.18954569545036
H            4.96102487850093       -2.85443069077675       -0.29444655039151
H            2.95177474616557       -2.02542053058218        1.71881242810978
H            1.73842183755760       -4.16476291612383        2.11566174920286
H           -1.13761008979674       -4.55732779319912        2.66751156673657
H           -2.45767691472119       -2.45618516779829        2.89807767038095
H           -0.80651487762709       -0.95804357062265        1.63577210404404
H            0.54461719032909        0.96106393576529        2.24150082679990
H            1.66099666387932        2.75458554779644        1.49285738777515
H            3.01468535548679        4.68606168405402        2.17081879364461
H            1.94710014062863        6.64112190725900        3.23296799360711
H           -0.48804884097376        6.63092569815899        3.64414610333196
H           -1.83721660396534        4.68714282113339        3.01486642643976
H           -2.70904257716501        3.54528228588431        1.28970931782912
H           -4.79745695242389        3.49741300219777        1.83775135057670
H           -6.30888418183596        2.71233384402833        1.40723237710382
H           -5.27211759983171        2.00028306796053        2.64410874218565
H           -5.51043917692921        2.73464464798995       -1.03344887454351
H           -3.93129350533876        3.39857392080562       -0.60765909437947
H           -4.03926297225570        1.87130978865178       -1.48012558473982
H           -7.10904646748245        1.39265050164940       -0.11160988663128
H           -8.66765837897293       -2.30516379581123       -1.93171721838055
H          -11.02651734649260       -2.18607599662812       -2.59813741148923
H          -12.49783097038463       -0.44310101634556       -1.65368251265183
H          -11.59038467001985        1.17363807392619       -0.02281295089964
H           -9.24051669825581        1.04378413215051        0.66699296147561
H           -7.29963542637440       -2.86602897070451       -0.12331251348044
H           -4.94374744611703       -2.96839371050707        0.50536856892644
H           -2.84407514785177       -2.26306496963523       -1.36856954142963
H           -1.55125279285908       -4.37994511317566       -1.56955008475547
H            1.14300392887716       -4.63081425583684       -2.07659060134193
H            2.34792642042866       -2.48991544372751       -2.49997936675081
H            0.68702836092049       -0.88641540760077       -0.77302360299823
H           -0.77836923485958        1.00978924329467       -1.19580646122733
H            1.11792070456023        4.97244115986359       -0.45044594974520
H           -0.34569539158243        6.88869472075640       -0.86996656937602
H           -2.37914953615975        6.62334164234791       -2.24877263986932
H           -2.92177676892919        4.41652671877715       -3.21333732170386
H           -1.44856910066031        2.49723911716530       -2.81040238596416
H            2.61455349954230        3.57368778832238       -1.43970182083128
