  123
       -185.03816125
 C          4.8836472327        2.3549018170       -2.3210397958
 C          4.4409666459        1.7757983978       -0.9644361471
 C          4.7422130102        2.7810483852        0.1610510996
 C          5.2225296223        0.5059660362       -0.7024185289
 C          6.6023991514        0.5560417100       -0.6287885504
 C          7.3845185579       -0.5707201545       -0.3831846823
 C          8.8432642145       -0.4650606140       -0.3058732550
 C          9.5633953749       -1.2133360284        0.6257040194
 C         10.9386048918       -1.1064057372        0.7038903784
 C         11.6223351880       -0.2566231334       -0.1504711216
 C         10.9194498159        0.4875151353       -1.0840871374
 C          9.5436578814        0.3876072574       -1.1597804567
 C          6.7348529833       -1.7961303689       -0.2166670079
 C          5.3665222691       -1.8765997233       -0.2958337870
 C          4.5869614973       -0.7339064255       -0.5304739059
 N          3.2186714251       -0.8482837461       -0.6040425439
 C          2.6160903853       -2.1163309209       -0.3707615607
 C          2.4159805472       -2.5565961355        0.9434444386
 C          1.7743295624       -3.7496034555        1.1749713696
 C          1.3351035649       -4.5239859283        0.0998812449
 S          0.0991519230       -5.7693089392        0.3922147284
 O          0.3272631436       -6.4367316505        1.6536307409
 O         -0.0593684436       -6.5918259553       -0.7855988565
 C         -1.2416535359       -4.6144989580        0.5473534445
 C         -1.5374538929       -4.0881429634        1.8072974668
 C         -2.2479742595       -2.9163368922        1.9129545574
 C         -2.6501631263       -2.2401606209        0.7551902943
 N         -3.2685020956       -0.9640362502        0.8324498409
 C         -2.4955013654        0.1292416676        1.1462713499
 C         -1.1643786717       -0.0400731678        1.5715385929
 C         -0.3753371994        1.0352210080        1.8766126720
 C         -0.8566283236        2.3490025478        1.7467641015
 C         -0.0275039969        3.4985057601        2.0671995923
 C          1.3711576010        3.4248889058        1.9980824639
 C          2.1560082691        4.5175279686        2.3014474292
 C          1.5755808163        5.7190265457        2.6824765843
 C          0.1937654962        5.8087740769        2.7616117148
 C         -0.5950012113        4.7183510101        2.4617138162
 C         -2.1757359609        2.5031998981        1.2991025298
 C         -3.0054488087        1.4387867217        1.0180439853
 C         -4.4270168505        1.6984303050        0.5660002804
 C         -5.1421864405        2.5210424247        1.6541339464
 C         -4.3962390109        2.4883894882       -0.7541170746
 C         -5.1986816755        0.4168213803        0.3410844689
 C         -6.5259533085        0.4696489922       -0.0305668601
 C         -7.2942494322       -0.6749504796       -0.2675870064
 C         -8.6903417875       -0.5720516340       -0.6730675865
 C         -9.2502433269       -1.5059574570       -1.5516736092
 C        -10.5696657547       -1.4065011308       -1.9430311595
 C        -11.3671113821       -0.3788804738       -1.4623379015
 C        -10.8284432560        0.5512188289       -0.5863006621
 C         -9.5071734674        0.4599406108       -0.1986664113
 C         -6.6745467101       -1.9228348991       -0.0965852258
 C         -5.3592638435       -2.0054458006        0.2727027434
 C         -4.5884430517       -0.8456247573        0.4808826587
 C         -2.3976181587       -2.7968850676       -0.5065503540
 C         -1.6968079113       -3.9724773277       -0.6075305585
 C          1.5611002849       -4.1005277686       -1.2115941788
 C          2.2051517051       -2.9085439166       -1.4467769809
 C          2.4081809837        0.2354236010       -0.8600063641
 C          1.0188529185        0.0617726576       -0.9532339478
 C          0.1864133926        1.1289198033       -1.1835815237
 C          0.7016039234        2.4211568723       -1.3056849406
 C         -0.1798202789        3.5719894175       -1.5021673967
 C          0.1043075398        4.8013389620       -0.9053735935
 C         -0.7458694913        5.8773720570       -1.0673591755
 C         -1.8862942232        5.7573639386       -1.8455936082
 C         -2.1693218965        4.5481269032       -2.4601823024
 C         -1.3298861426        3.4648267969       -2.2848717588
 C          2.0839372629        2.5824951476       -1.2219930818
 C          2.9483646159        1.5231028030       -1.0149221982
 H          4.6925891582        1.6332017991       -3.1128055650
 H          4.3372490335        3.2657150607       -2.5482230475
 H          5.9449178493        2.5851474101       -2.3148747842
 H          4.1963005828        3.7061411205        0.0046599199
 H          4.4477601325        2.3604432420        1.1203896197
 H          5.8028505780        3.0114001262        0.2004557591
 H          7.1025206058        1.5043946465       -0.7415736638
 H          9.0350394039       -1.8630635112        1.3081002268
 H         11.4804292080       -1.6862675473        1.4365404711
 H         12.6970862414       -0.1752884860       -0.0897957394
 H         11.4471276794        1.1464963096       -1.7580186915
 H          9.0055066411        0.9535464381       -1.9065060141
 H          7.3115376470       -2.6933557303       -0.0527906074
 H          4.8769453891       -2.8306459605       -0.1845724396
 H          2.7596656408       -1.9427057538        1.7631191390
 H          1.5891331279       -4.1064846446        2.1750117292
 H         -1.1908439457       -4.6205871662        2.6779109447
 H         -2.4879077210       -2.4978332456        2.8794710548
 H         -0.7585348088       -1.0337319468        1.6597064683
 H          0.6262573235        0.8601317139        2.2346364151
 H          1.8398624754        2.5124275481        1.6659668236
 H          3.2322701893        4.4389838426        2.2418329946
 H          2.1931380108        6.5722842658        2.9188479477
 H         -0.2680903366        6.7362004834        3.0680153037
 H         -1.6660075630        4.8036105942        2.5640142666
 H         -2.5435301371        3.5036638703        1.1435767306
 H         -4.6269499086        3.4610468212        1.8266044099
 H         -6.1642538804        2.7429294380        1.3627781758
 H         -5.1636872584        1.9627617631        2.5880103532
 H         -5.4031031790        2.7379095352       -1.0761966844
 H         -3.8293397888        3.4067576118       -0.6405496790
 H         -3.9257932288        1.8907573640       -1.5317133115
 H         -6.9931741186        1.4298753125       -0.1764018183
 H         -8.6321602629       -2.2965991469       -1.9508265935
 H        -10.9808594749       -2.1320789367       -2.6295419290
 H        -12.4000897884       -0.3045302807       -1.7665137081
 H        -11.4461026555        1.3494000453       -0.2008771942
 H         -9.1078940479        1.1748100524        0.5059605897
 H         -7.2472833658       -2.8279054710       -0.2254475821
 H         -4.9006472987       -2.9697094351        0.4224473707
 H         -2.7423368278       -2.2780032867       -1.3889876121
 H         -1.4675666100       -4.4120876131       -1.5641932876
 H          1.2207205346       -4.7293858856       -2.0178586554
 H          2.3876618532       -2.5656372998       -2.4547479955
 H          0.6003386181       -0.9236770132       -0.8297507030
 H         -0.8787637326        0.9696152776       -1.2293841205
 H          0.9781088345        4.9036559069       -0.2825315904
 H         -0.5178423698        6.8154657576       -0.5826476529
 H         -2.5478600890        6.6007351226       -1.9763181468
 H         -3.0489569293        4.4507030524       -3.0801520191
 H         -1.5506460960        2.5311464703       -2.7807265186
 H          2.4857111191        3.5752176310       -1.3444707707
