123
 energy: -185.191546661807 gnorm: 0.000164491692 xtb: 6.7.1 (edcfbbe)
C            5.38429585270269        2.10235806645109       -2.70784437158645
C            5.25879945610147        1.73940568644332       -1.21638330740688
C            5.96962190754663        2.79512293099669       -0.34888656671645
C            5.92395637746363        0.39540066255512       -0.98404349674450
C            7.27009810327321        0.24467307887829       -1.27787492031745
C            7.96291913671540       -0.94107471215595       -1.05538233460577
C            9.38943922714047       -1.05194560820164       -1.39011141565638
C           10.27092725874411       -1.72497503235796       -0.54567243297464
C           11.61367382388806       -1.82375611500250       -0.86029243948468
C           12.10109083329204       -1.25484225929365       -2.02554307436073
C           11.23457167545204       -0.58652669546894       -2.87491009341741
C            9.89216567398941       -0.48490768777017       -2.56020388109087
C            7.26458576759765       -2.00720891308906       -0.49563325174819
C            5.92384985596949       -1.88756200269435       -0.20532533118582
C            5.22986179621550       -0.70149350537322       -0.46284179951851
N            3.87648921441044       -0.61612343533481       -0.16602190854548
C            3.18747788648454       -1.76355310560907        0.29441194669693
C            2.71887290801402       -1.81256199389703        1.60701003542282
C            1.95413895928061       -2.88502044817982        2.02609727175668
C            1.67909172739245       -3.90998129879748        1.13854205820998
S            0.42139461852257       -5.10428876520928        1.59589980388796
O            0.54902489030528       -5.46541599962532        2.98994563503395
O            0.40047615449821       -6.18095688484740        0.63106758390335
C           -1.00968358402094       -4.04349269206483        1.37794854578323
C           -1.63793294004131       -3.48666906505550        2.47551755835212
C           -2.58378911858675       -2.49432127394066        2.28480813148913
C           -2.87551532495842       -2.05022080119854        0.99626160425632
N           -3.76192335471403       -0.96602030513610        0.79400940678619
C           -3.34641145862022        0.31802910976203        1.13180438129834
C           -2.12080807045454        0.51538057411166        1.77495427813120
C           -1.68905400579771        1.77535377878220        2.12467210587229
C           -2.46068297720726        2.89660570547395        1.83152063795400
C           -2.01541798658792        4.24527005025713        2.20498085298020
C           -2.93119076420539        5.21743861111629        2.60570142860256
C           -2.50865146769936        6.48458107126091        2.96140460932182
C           -1.16199842914220        6.80616271636646        2.92691907614049
C           -0.24204839874307        5.84869176455482        2.53405402325562
C           -0.66304334371631        4.58225431623818        2.17655794659888
C           -3.66527224889245        2.69136008569165        1.16552680755902
C           -4.12696490626755        1.43354479330036        0.80836340518139
C           -5.44037421619101        1.31554958700044        0.05641267834354
C           -6.56011359324263        1.94209771903638        0.90808847276800
C           -5.30785246127233        2.06381630137452       -1.28326881815630
C           -5.80061002975543       -0.13103112056021       -0.22563238053487
C           -6.99395457086288       -0.42202444241977       -0.86843341371739
C           -7.40192095953998       -1.72213297054688       -1.14797229701991
C           -8.67060900244323       -1.98337661049083       -1.84166706361008
C           -8.75689599633649       -2.97978243837891       -2.81272403588074
C           -9.94984915257823       -3.22797693610341       -3.46597463242059
C          -11.08017622501308       -2.48814971123231       -3.15923553423201
C          -11.00780994978755       -1.49664079949654       -2.19457335272178
C           -9.81462992219981       -1.24529634149963       -1.54285672352929
C           -6.57673115008854       -2.76604556941754       -0.73839719018440
C           -5.38918441533859       -2.50431142447442       -0.09303324479555
C           -4.97123247358838       -1.19226588370147        0.14990191517347
C           -2.26264668198913       -2.65081436330705       -0.10313804387524
C           -1.32607766285594       -3.64764754274719        0.09020215715890
C            2.17938629526439       -3.89926663350481       -0.15007866221797
C            2.94125281153555       -2.82530769806907       -0.57391026508837
C            3.15965205287654        0.55953979935896       -0.36098253115493
C            1.78499549243332        0.59447181747617       -0.10604579484424
C            1.05348183500154        1.74848634692765       -0.27625796707840
C            1.66869246293008        2.91788762788413       -0.71522952802847
C            0.90534579505009        4.16275628342574       -0.87811087615780
C            1.47676358017787        5.39738440504934       -0.57375135137477
C            0.75281257650405        6.56647834242206       -0.71306975911596
C           -0.55652162119254        6.52650192947223       -1.16136990375290
C           -1.13535720280012        5.30701655538003       -1.46960652716362
C           -0.41359986813492        4.13706531855840       -1.32930743752670
C            3.02972171328115        2.86321865759845       -1.00041915405191
C            3.78781364183398        1.71283447428376       -0.84364906165170
H            4.90815687511839        1.33642043631269       -3.31771628305188
H            4.90469787997121        3.05405897435477       -2.91863506217550
H            6.42751169722659        2.17692162283604       -3.00128050804163
H            5.85678985384866        2.54651155149685        0.70509619395603
H            7.03063231146635        2.83639831469601       -0.57864401421162
H            5.54737529742269        3.78183504162105       -0.51711122596519
H            7.81983095812213        1.08417929310568       -1.67476269279443
H            9.90249515581265       -2.15627911751868        0.37408666668394
H           12.28483616654866       -2.34446631946406       -0.19180800167482
H           13.15038950766163       -1.33271224209138       -2.27088373003835
H           11.60727755019614       -0.14521729529601       -3.78856367035101
H            9.21994443633083        0.02110804456170       -3.23820004645186
H            7.76709773633768       -2.94355619818710       -0.30371417479111
H            5.40433939253981       -2.72608620037355        0.23267145377143
H            2.93385875351818       -0.99477741948938        2.27797207175097
H            1.56226488862308       -2.94045390405712        3.02934078304264
H           -1.37201496164158       -3.83399581133385        3.46164577813795
H           -3.08154846379998       -2.04176166745379        3.12910399556282
H           -1.49130473922897       -0.32982543852777        2.00368188382366
H           -0.74962481618128        1.88390553300033        2.64514277810908
H           -3.98206830285817        4.97271954824013        2.66199853196224
H           -3.23294957461426        7.22432748642916        3.27264184859980
H           -0.83211341458812        7.79641981497011        3.20607663691854
H            0.81034852063453        6.09066331410415        2.50281371018271
H            0.06361045560588        3.85359152226324        1.85053493083658
H           -4.24882488903263        3.55791724751944        0.89674282615182
H           -6.66215700410215        1.39800749340017        1.84562702637105
H           -6.33993935161461        2.98102915513596        1.13584504574211
H           -7.51136112442504        1.90687674665030        0.38500989601625
H           -6.22728991722074        1.99323939801509       -1.85805726813473
H           -5.08799649620899        3.11498339214417       -1.11886247826180
H           -4.50099638191884        1.63180274875291       -1.87294493106264
H           -7.63056193762216        0.38799384029300       -1.18940241290956
H           -7.87588376958907       -3.55069640341839       -3.06897147502954
H           -9.99855012227172       -4.00123527609918       -4.21973525796473
H          -12.01269133671174       -2.68391595147713       -3.66851703694778
H          -11.88739713184553       -0.91935127773558       -1.94662555514466
H           -9.77281420194801       -0.48404218316210       -0.77714736729420
H           -6.87832119407042       -3.79012851506327       -0.90102533832462
H           -4.77644015838671       -3.32939687889827        0.23707215497467
H           -2.51037729492478       -2.31537603854698       -1.09887576165987
H           -0.82402950195522       -4.11490095629372       -0.74174348284836
H            1.95092061141097       -4.72486876270656       -0.80569860432290
H            3.32693070975354       -2.78932361749048       -1.58156816906833
H            1.27734175773399       -0.29696528344133        0.22718538368824
H           -0.00064320884476        1.74378743178269       -0.04247902314300
H            2.48992600516283        5.43947372042991       -0.20043063913401
H            1.20971979898056        7.51452417252948       -0.46629156761149
H           -1.12298088721236        7.44031039594092       -1.26714362930660
H           -2.15534338154715        5.26864406821945       -1.82450411052132
H           -0.87143803033357        3.19326815557625       -1.58729288262792
H            3.50401196059624        3.75414720500102       -1.38174479244835
