  56
  -84.2757478353000        1.00000000000000      !
 C          0.8770957499        2.9626219471       -1.2932009741
 C          0.3584308678        0.4438516154        0.1188225747
 C         -1.6058367613        1.3039248299        2.2866868421
 C          1.1688217569       -0.3594040575        1.1066799044
 C          2.7088008337        0.5555026610       -0.3955140802
 C          3.8777633883       -0.4330332237       -0.5153088961
 C          3.3200398838       -2.2306237421        0.6231775105
 C          1.9974489654       -2.6529578462        1.0766144176
 C          0.9502646455       -1.7380290546        1.0467749348
 N         -0.3227803820       -2.2156166755        0.7465550385
 C         -1.1855899850       -1.5150081168       -0.0728446614
 C         -2.1286813800       -2.1238274751       -0.8026928714
 C         -3.2583394651       -1.3743977557       -1.4043030470
 C         -3.9914063064        0.5934975785       -0.7746720653
 C         -2.8461391929        1.2878000452       -0.0123143213
 C         -1.0862655126       -0.0205615654        0.0058390011
 O          2.0608158475        3.6125395958       -1.0524916925
 S          0.2290827375        2.3254730609        0.3658337367
 O          1.3203431606        2.7904439815        1.2452038148
 C          1.3711606605        0.1535857378       -0.9706792404
 C          2.5628540641        0.1902082043        1.1071241557
 C          3.7345770940       -0.7958381646        0.9699626466
 C          3.4598790220       -1.8404596859       -0.9593125220
 C          2.2918551233       -1.8953282053       -1.8556233473
 C          1.2804135491       -0.9767232801       -1.7946510316
 C         -2.1288979089        0.4856820336        1.1050983358
 C         -2.9566913440       -0.6302398578        1.6765958357
 C         -3.9857242204       -1.1857144524        1.0545523826
 C         -4.3125380857       -0.8495747809       -0.3497850982
 C         -2.9856147305        0.0800513897       -1.8200451461
 C         -1.8502361874        0.7809423351       -1.0649638179
 H          2.1733369223        3.6082056447       -0.0691372761
 H          0.1010521905        3.6460249974       -1.6597735820
 H          1.0080092163        2.1161266629       -1.9786682648
 H         -1.5490482290        2.3661779567        2.0694752190
 H         -2.2780287953        1.1873517916        3.1357322597
 H         -0.6195184215        0.9572350196        2.5902096546
 H          2.9955884157        1.5779878548       -0.6330746782
 H          4.7941993718       -0.0389392043       -0.9469301656
 H          4.0834728857       -2.9688488350        0.8687426979
 H          1.7674533021       -3.7092955800        1.0619640185
 H         -0.3983076925       -3.2221760435        0.6828287090
 H         -2.1876936655       -3.2031022024       -0.8143401627
 H         -3.7355002727       -1.9583474849       -2.1915660338
 H         -4.8403782396        1.2230088359       -1.0267084929
 H         -2.9895154926        2.3456558747        0.1916733614
 H          2.7132129908        0.9878390409        1.8317721385
 H          4.5398873359       -0.6841992734        1.6912606107
 H          4.2849402429       -2.4203321819       -1.3740183138
 H          2.1884042915       -2.7589713177       -2.4955077493
 H          0.3557461774       -1.1611443628       -2.3278573788
 H         -2.6955519338       -0.9442366922        2.6769248957
 H         -4.5691360949       -1.9580889441        1.5342931329
 H         -5.3273648080       -1.1509180427       -0.6083961220
 H         -3.0623995050        0.3050754112       -2.8806237303
 H         -1.2406544051        1.4518048388       -1.6638884967
