  56
  -84.6746354200000       0.334168213199304      !
 C          0.8770957499        2.9626219471       -1.2932009741
 C          0.3584308678        0.4438516154        0.1188225747
 C         -1.6058367613        1.3039248299        2.2866868421
 C          1.1688217569       -0.3594040575        1.1066799044
 C          2.7088008337        0.5555026610       -0.3955140802
 C          3.8777633883       -0.4330332237       -0.5153088961
 C          3.3200398838       -2.2306237421        0.6231775105
 C          1.9974489654       -2.6529578462        1.0766144176
 C          0.9502646455       -1.7380290546        1.0467749348
 N         -0.3227803820       -2.2156166755        0.7465550385
 C         -1.1855899850       -1.5150081168       -0.0728446614
 C         -2.1286813800       -2.1238274751       -0.8026928714
 C         -3.2583394651       -1.3743977557       -1.4043030470
 C         -3.9914063064        0.5934975785       -0.7746720653
 C         -2.8461391929        1.2878000452       -0.0123143213
 C         -1.0862655126       -0.0205615654        0.0058390011
 O          2.0608158475        3.6125395958       -1.0524916925
 S          0.2290827375        2.3254730609        0.3658337367
 O          1.3203431606        2.7904439815        1.2452038148
 C          1.3711606605        0.1535857378       -0.9706792404
 C          2.5628540641        0.1902082043        1.1071241557
 C          3.7345770940       -0.7958381646        0.9699626466
 C          3.4598790220       -1.8404596859       -0.9593125220
 C          2.2918551233       -1.8953282053       -1.8556233473
 C          1.2804135491       -0.9767232801       -1.7946510316
 C         -2.1288979089        0.4856820336        1.1050983358
 C         -2.9566913440       -0.6302398578        1.6765958357
 C         -3.9857242204       -1.1857144524        1.0545523826
 C         -4.3125380857       -0.8495747809       -0.3497850982
 C         -2.9856147305        0.0800513897       -1.8200451461
 C         -1.8502361874        0.7809423351       -1.0649638179
 H          2.1733369223        3.6082056447       -0.0691372761
 H          0.1010521905        3.6460249974       -1.6597735820
 H          1.0080092163        2.1161266629       -1.9786682648
 H         -1.5490482290        2.3661779567        2.0694752190
 H         -2.2780287953        1.1873517916        3.1357322597
 H         -0.6195184215        0.9572350196        2.5902096546
 H          2.9955884157        1.5779878548       -0.6330746782
 H          4.7941993718       -0.0389392043       -0.9469301656
 H          4.0834728857       -2.9688488350        0.8687426979
 H          1.7674533021       -3.7092955800        1.0619640185
 H         -0.3983076925       -3.2221760435        0.6828287090
 H         -2.1876936655       -3.2031022024       -0.8143401627
 H         -3.7355002727       -1.9583474849       -2.1915660338
 H         -4.8403782396        1.2230088359       -1.0267084929
 H         -2.9895154926        2.3456558747        0.1916733614
 H          2.7132129908        0.9878390409        1.8317721385
 H          4.5398873359       -0.6841992734        1.6912606107
 H          4.2849402429       -2.4203321819       -1.3740183138
 H          2.1884042915       -2.7589713177       -2.4955077493
 H          0.3557461774       -1.1611443628       -2.3278573788
 H         -2.6955519338       -0.9442366922        2.6769248957
 H         -4.5691360949       -1.9580889441        1.5342931329
 H         -5.3273648080       -1.1509180427       -0.6083961220
 H         -3.0623995050        0.3050754112       -2.8806237303
 H         -1.2406544051        1.4518048388       -1.6638884967
  56
  -84.6746337500000       0.333578197502699      !
 C          0.8744532734        2.9557224461       -1.3026402214
 C          0.3580818271        0.4436675169        0.1158048586
 C         -1.5972489479        1.2944557397        2.2906717747
 C          1.1649626770       -0.3604365373        1.1060269538
 C          2.7100199204        0.5556591269       -0.3893574941
 C          3.8802537636       -0.4318407137       -0.5049008407
 C          3.3193268006       -2.2303824033        0.6305430420
 C          1.9949986711       -2.6536837293        1.0777138969
 C          0.9474033871       -1.7391272274        1.0424205878
 N         -0.3230853074       -2.2174114720        0.7338008637
 C         -1.1867709645       -1.5137827414       -0.0817452174
 C         -2.1316034632       -2.1195883394       -0.8119901044
 C         -3.2636044735       -1.3675358095       -1.4058352657
 C         -3.9947836731        0.5972109760       -0.7639104816
 C         -2.8467359954        1.2885775581       -0.0030428084
 C         -1.0867870575       -0.0198253639        0.0026151109
 O          2.0556791574        3.6111174803       -1.0654417244
 S          0.2284966161        2.3257177007        0.3599690745
 O          1.3212776903        2.7938359204        1.2354934828
 C          1.3747260981        0.1529765367       -0.9700372738
 C          2.5586910302        0.1897946899        1.1126114314
 C          3.7314889645       -0.7954421920        0.9796296917
 C          3.4653412752       -1.8393467955       -0.9512936904
 C          2.3009053235       -1.8947700526       -1.8521861434
 C          1.2882586366       -0.9771786445       -1.7946615233
 C         -2.1252058182        0.4816521925        1.1078404631
 C         -2.9503874231       -0.6369266941        1.6779231254
 C         -3.9812766224       -1.1904286636        1.0571604812
 C         -4.3136523410       -0.8479020873       -0.3443391215
 C         -2.9929499737        0.0889373020       -1.8156346217
 C         -1.8547110555        0.7865436616       -1.0617351562
 H          2.1702307382        3.6100949828       -0.0824979434
 H          0.0967572889        3.6341048099       -1.6743184980
 H          1.0082669678        2.1047842754       -1.9821537805
 H         -2.2725355080        1.1833718798        3.1380273948
 H         -0.6151417803        0.9378525702        2.5959735162
 H         -1.5296368185        2.3562287855        2.0750332229
 H          2.9967695984        1.5784446397       -0.6255771131
 H          4.7980904601       -0.0367320761       -0.9326051370
 H          4.0822221851       -2.9682813080        0.8790499794
 H          1.7656223291       -3.7101356568        1.0608821083
 H         -0.3978772866       -3.2237070834        0.6668020148
 H         -2.1908006721       -3.1988002853       -0.8276479290
 H         -3.7439988283       -1.9477284295       -2.1939221199
 H         -4.8451884307        1.2273657426       -1.0096364700
 H         -2.9895952731        2.3454336980        0.2064228334
 H          2.7056850181        0.9873381326        1.8380513318
 H          4.5338553166       -0.6836239392        1.7041856200
 H          4.2925429125       -2.4184379777       -1.3628885172
 H          2.2008084263       -2.7582215822       -2.4929037356
 H          0.3657120379       -1.1624268404       -2.3313361699
 H         -2.6850989383       -0.9549031073        2.6758351295
 H         -4.5621936283       -1.9656023435        1.5354291423
 H         -5.3294107482       -1.1484311971       -0.6002977448
 H         -3.0740678879        0.3191415631       -2.8747887782
 H         -1.2477356335        1.4601120535       -1.6601732324
  56
  -84.6746299900000       0.332253589297997      !
 C          0.8819327912        2.9655315410       -1.2867995556
 C          0.3587567561        0.4454245849        0.1212136611
 C         -1.6149059559        1.3098811567        2.2847275563
 C          1.1720113085       -0.3575779124        1.1066863998
 C          2.7083344224        0.5552347873       -0.4006631838
 C          3.8752556279       -0.4353153923       -0.5238415964
 C          3.3198550862       -2.2311665802        0.6185325293
 C          1.9987375116       -2.6516955337        1.0781249232
 C          0.9522170470       -1.7358998504        1.0504960159
 N         -0.3226022758       -2.2127950534        0.7558118162
 C         -1.1841166420       -1.5144398660       -0.0671294246
 C         -2.1247016128       -2.1258837512       -0.7979670375
 C         -3.2534462378       -1.3791295604       -1.4043455852
 C         -3.9900134109        0.5895389855       -0.7815278529
 C         -2.8474791457        1.2866745993       -0.0177043928
 C         -1.0859080236       -0.0196521435        0.0082649336
 O          2.0666252692        3.6122149205       -1.0425622357
 S          0.2300338136        2.3267488538        0.3698679982
 O          1.3204067319        2.7894567398        1.2513449076
 C          1.3682877764        0.1552830833       -0.9715621008
 C          2.5665640876        0.1908475421        1.1025177114
 C          3.7369067721       -0.7964105618        0.9622868105
 C          3.4538310864       -1.8426918700       -0.9646888297
 C          2.2825614107       -1.8965768276       -1.8569550985
 C          1.2735315775       -0.9757189441       -1.7946344956
 C         -2.1322003531        0.4880374078        1.1033123746
 C         -2.9599408280       -0.6279423268        1.6751010128
 C         -3.9873288005       -1.1853964159        1.0520629398
 C         -4.3110380452       -0.8527120472       -0.3538675112
 C         -2.9808195381        0.0745496460       -1.8228827597
 C         -1.8481556580        0.7784997487       -1.0664184143
 H          2.1772400683        3.6064211183       -0.0590034827
 H          0.1081305335        3.6513249980       -1.6535075660
 H          1.0113820843        2.1195701843       -1.9732714518
 H         -0.6318146399        0.9617232425        2.5963666488
 H         -1.5536452491        2.3709806074        2.0634527973
 H         -2.2935646358        1.1985846665        3.1292657702
 H          2.9968065973        1.5769039900       -0.6395531899
 H          4.7907007078       -0.0430391430       -0.9592333281
 H          4.0836624518       -2.9697224384        0.8618881418
 H          1.7679550978       -3.7078935895        1.0668907196
 H         -0.3988795674       -3.2194763954        0.6945033395
 H         -2.1825918029       -3.2052388515       -0.8069584696
 H         -3.7279801330       -1.9653965575       -2.1914789855
 H         -4.8389484281        1.2175370390       -1.0375476200
 H         -2.9924622220        2.3448455515        0.1834109732
 H          2.7197558790        0.9884762739        1.8265887482
 H          4.5447916042       -0.6845238664        1.6806611975
 H          4.2765044315       -2.4239864806       -1.3821211532
 H          2.1752874867       -2.7609821001       -2.4952115180
 H          0.3469867978       -1.1591500808       -2.3248704350
 H         -2.7006868715       -0.9393016268        2.6765986141
 H         -4.5709649401       -1.9574488752        1.5320003758
 H         -5.3248972006       -1.1556623735       -0.6145080508
 H         -3.0549854227        0.2968543798       -2.8842397759
 H         -1.2376767392        1.4489756018       -1.6649915501
