  95
       -158.57508917
 C          0.0416185946        3.3606024712       -1.5526209455
 C          0.0631584234        2.8075594042       -0.1149885445
 C          0.0938817884        3.9671816914        0.8982830221
 C         -1.1944700854        2.0002836439        0.1214255006
 C         -2.4217131078        2.6196592505        0.0383293306
 C         -3.6203596771        1.9330285566        0.2617479232
 N         -4.8327467608        2.5942426366        0.1687466632
 C         -5.9733848141        2.1165532805       -0.4565879803
 C         -6.1650353316        0.9422668454       -1.1702201224
 C         -7.4105396309        0.7243336978       -1.7323961851
 C         -8.4384774168        1.6546757049       -1.6029241753
 C         -8.2426435856        2.8428775038       -0.9227227937
 C         -7.0022840262        3.0818597542       -0.3494323743
 C         -6.4532288470        4.1886062435        0.3864489293
 C         -6.9790433933        5.3957361991        0.8234216562
 C         -6.1731215527        6.2386726404        1.5665764105
 C         -4.8690427512        5.8778443998        1.8950893140
 C         -4.3239327354        4.6796224271        1.4687543833
 C         -5.1134794108        3.8475312739        0.6881631646
 C         -3.5639191138        0.5719762787        0.6033028554
 C         -2.3554595883       -0.0592456229        0.6963742277
 C         -1.1481586693        0.6229810007        0.4349551729
 N          0.0452282602       -0.0457084517        0.5159259561
 C          0.0238579402       -1.4443938132        0.7535915607
 C          0.5053148538       -1.9729201118        1.9807621188
 C          0.4380144892       -3.3285409404        2.2019094459
 C         -0.1283838243       -4.1772710064        1.2584336310
 C         -0.5929361431       -3.6469336780        0.0366406286
 C         -0.4955406968       -2.2943153732       -0.2099725077
 S         -1.2004642000       -4.7230369237       -1.2371496979
 O         -2.5136155407       -5.2221261487       -0.9179566750
 O         -1.0969835137       -4.0041625531       -2.4920568469
 C          0.0222678122       -6.0201512091       -1.2343225286
 C          0.5960026449       -6.4304437127       -2.4275531012
 C          1.5984211794       -7.3815698414       -2.4197465380
 C          2.0539507037       -7.9052949669       -1.2087458950
 C          1.5028919408       -7.4731047132       -0.0175300962
 C          0.4765637656       -6.5410615785       -0.0256963336
 S         -0.1800685807       -5.9271698755        1.5170094829
 O          0.7604137315       -6.2515018358        2.5686848505
 O         -1.5304776447       -6.3868966150        1.7182950113
 C          1.2476726938        0.5865371564        0.3342446790
 C          2.4461203417       -0.1535567510        0.4035689813
 C          3.6647412313        0.4509470632        0.2599749179
 C          3.7378098344        1.8294129184        0.0070035451
 N          4.9617860168        2.4630716023       -0.1381655463
 C          5.2929450847        3.3801116760       -1.1226261684
 C          4.5559435420        3.8091687032       -2.2168615734
 C          5.1453163839        4.7168540838       -3.0790379764
 C          6.4417477155        5.1799148812       -2.8694711312
 C          7.1955958821        4.7266623996       -1.8028199882
 C          6.6246316636        3.8158527745       -0.9255473858
 C          7.1146413317        3.1260881241        0.2368005330
 C          8.3201372302        3.1552509434        0.9232280916
 C          8.4556678331        2.3724737177        2.0549339710
 C          7.4021839237        1.5856165156        2.5133293794
 C          6.1916668845        1.5408070331        1.8446404444
 C          6.0610275064        2.2977825141        0.6896101387
 C          2.5476905191        2.5549990986       -0.1122765417
 C          1.3113751154        1.9683510079        0.0491813926
 H          0.0465234412        2.5393968839       -2.2665725678
 H          0.9100321919        3.9863199300       -1.7379966246
 H         -0.8492055641        3.9579012078       -1.7237790506
 H         -0.7627832263        4.6209583148        0.7630960874
 H          0.9930702197        4.5641587778        0.7787328667
 H          0.0747224831        3.5750866205        1.9133243529
 H         -2.4818614555        3.6579334118       -0.2430521097
 H         -5.3705538117        0.2239622907       -1.2997829979
 H         -7.5843406539       -0.1853287733       -2.2864636317
 H         -9.3976382843        1.4468841187       -2.0520007107
 H         -9.0328636086        3.5732557060       -0.8419091901
 H         -7.9990491241        5.6627236300        0.5941860002
 H         -6.5624249573        7.1834840852        1.9137812013
 H         -4.2716671542        6.5418862041        2.5011881930
 H         -3.3245315440        4.3954491426        1.7610411603
 H         -4.4717411850        0.0403340130        0.8376845756
 H         -2.3195913389       -1.0936648596        0.9919348349
 H          0.9043193761       -1.3028926856        2.7256830157
 H          0.8063759507       -3.7693066112        3.1148024009
 H         -0.8364771750       -1.9192350370       -1.1617132844
 H          0.2352210775       -5.9866093101       -3.3423176635
 H          2.0320805706       -7.7158113386       -3.3495122202
 H          2.8396495429       -8.6449265373       -1.2026761160
 H          1.8450821113       -7.8398307133        0.9376972281
 H          2.3937252117       -1.2184595476        0.5551728883
 H          4.5687920903       -0.1361266904        0.2913541208
 H          3.5632324459        3.4316374526       -2.4097429752
 H          4.5897531714        5.0661123608       -3.9361178837
 H          6.8664499913        5.8904993794       -3.5619290028
 H          8.2096948576        5.0650480178       -1.6562250174
 H          9.1295459394        3.7815921672        0.5810305392
 H          9.3864414424        2.3779059953        2.6012892686
 H          7.5283017503        1.0021774001        3.4125634268
 H          5.3744108911        0.9461607651        2.2235029012
 H          2.6204373065        3.6128945277       -0.3033751147
