  144
       -190.78853232
 C         -2.8183361478       -1.5530790300        1.4821115251
 C         -3.6701716164       -0.7123075772        0.5765488079
 C         -5.0502189307       -0.7499941605        0.6795098904
 C         -5.8395341361        0.0344427836       -0.1528142940
 N         -7.2370896546       -0.0036273212       -0.0386364608
 C         -8.0170748143       -1.1404256970       -0.0295113639
 C         -7.6624089983       -2.4699752888       -0.1997380039
 C         -8.6661990350       -3.4158637889       -0.1760161468
 C        -10.0173701241       -3.0889924676        0.0052627342
 C        -11.0475688028       -4.2093734685        0.0184543448
 C        -10.7135128281       -5.1902376551        1.1514514777
 C        -11.0127422990       -4.9414210843       -1.3305973063
 C        -12.4725647934       -3.6956603029        0.2424736548
 C        -10.3616176721       -1.7561033056        0.1546898253
 C         -9.3720449310       -0.7817101334        0.1345591878
 C         -9.4021404178        0.6502164592        0.2409813642
 C        -10.4278639541        1.5654947158        0.4391417809
 C        -10.1364689340        2.9161604962        0.5294260832
 C        -11.2082509095        3.9741489764        0.7508967087
 C        -12.6149770225        3.3764573905        0.8424454711
 C        -10.9211484549        4.7156295648        2.0643682368
 C        -11.1889091325        4.9659395596       -0.4207877643
 C         -8.7985912280        3.3214381193        0.4241627025
 C         -7.7597888162        2.4353432357        0.2272359833
 C         -8.0652508356        1.0869244176        0.1236131956
 C         -5.2339047358        0.8581399585       -1.0935718216
 C         -3.8535094718        0.9076888100       -1.1971255509
 C         -3.2007355726        1.7876948260       -2.2230468324
 C         -3.0518736255        0.1228183238       -0.3609915090
 B         -1.4882921385        0.1782069486       -0.4518799431
 C         -0.7038609260        1.2861945901        0.3114216004
 C         -1.3714133920        2.2882633236        1.0183244792
 C         -0.6806776087        3.2819771675        1.6906534685
 C          0.7045009692        3.2874397211        1.6738227261
 C          1.3862424885        2.2947020287        0.9909952479
 C          0.7092655792        1.2852462643        0.3039388747
 B          1.4854608631        0.1577649385       -0.4386791941
 C          3.0479901594        0.0932004688       -0.3362774731
 C          3.8598908911        0.6803269847       -1.3125921749
 C          3.2182807159        1.3755580153       -2.4780095094
 C          5.2394558885        0.6224305535       -1.2048976858
 C          5.8357844030        0.0000284329       -0.1146418832
 N          7.2323006033       -0.0376623966        0.0019158997
 C          8.0845226947        1.0386183667       -0.1352924827
 C          7.8084147932        2.3761109870       -0.3758220315
 C          8.8693304141        3.2549354151       -0.4460798657
 C         10.2022891402        2.8559890154       -0.2761889653
 C         11.3006758446        3.9038252947       -0.3859266793
 C         12.6984264145        3.3147618954       -0.1764667465
 C         11.2559462031        4.5343553808       -1.7851362062
 C         11.0763113810        4.9860607102        0.6796945902
 C         10.4641422700        1.5231484396       -0.0073619890
 C          9.4154141981        0.6155132061        0.0682253073
 C          9.3560889492       -0.7930656543        0.3421544497
 C         10.3279174186       -1.7482882204        0.6113680882
 C          9.9574153544       -3.0654710508        0.8236268828
 C         10.9646078338       -4.1618485354        1.1405119421
 C         12.4022747111       -3.6390962079        1.2049119008
 C         10.8997609419       -5.2411341043        0.0506605467
 C         10.6220856947       -4.7786052245        2.5042936141
 C          8.5990689321       -3.4007638724        0.7377119659
 C          7.6128243620       -2.4736240741        0.4720162153
 C          7.9921689889       -1.1519930528        0.2921930480
 C          5.0352197418       -0.5799868782        0.8623355859
 C          3.6556317243       -0.5447439791        0.7507505975
 C          2.7923738262       -1.1819033646        1.8003626889
 C          0.7017649234       -0.9092963428       -1.2579059326
 C          1.3701179457       -1.8984334424       -1.9819057606
 C          0.6803273284       -2.8420180956       -2.7239743165
 C         -0.7044440465       -2.8154205989       -2.7520683364
 C         -1.3871246931       -1.8501594009       -2.0316358655
 C         -0.7113163416       -0.8891655087       -1.2773634356
 H         -2.2153809847       -2.2468965853        0.8967766184
 H         -3.4300325400       -2.1222982762        2.1781651702
 H         -2.1340335535       -0.9230048514        2.0495784739
 H         -5.5236184427       -1.3787853690        1.4196642729
 H         -6.6340112966       -2.7601507330       -0.3562954670
 H         -8.3854914498       -4.4501143002       -0.3069729968
 H        -10.7067358881       -4.6705374154        2.1074089264
 H        -11.4581912291       -5.9825934453        1.1942407782
 H         -9.7391195657       -5.6479956949        1.0062202920
 H        -11.2366064658       -4.2483832846       -2.1390817243
 H        -10.0364189535       -5.3790851412       -1.5192255417
 H        -11.7523864019       -5.7394891057       -1.3444033770
 H        -12.7746118641       -3.0196394245       -0.5540702337
 H        -13.1643414411       -4.5358702372        0.2494879124
 H        -12.5570408480       -3.1826321237        1.1977430110
 H        -11.3856460602       -1.4471507522        0.2831991069
 H        -11.4366251292        1.1972807035        0.5252886986
 H        -12.6928745064        2.6865765902        1.6795651859
 H        -12.8792351064        2.8560030557       -0.0752358599
 H        -13.3390370460        4.1743092972        0.9968407099
 H        -11.6881862077        5.4654338076        2.2480831903
 H         -9.9570449944        5.2154733086        2.0357828944
 H        -10.9164097422        4.0148710850        2.8967857926
 H        -11.9667617697        5.7159242890       -0.2913380394
 H        -11.3663908480        4.4423450229       -1.3580023101
 H        -10.2329731892        5.4770352437       -0.4924635499
 H         -8.5561180467        4.3703944831        0.5046483820
 H         -6.7398077699        2.7852192756        0.1686950513
 H         -5.8502790403        1.4525461513       -1.7525113539
 H         -2.6388337104        1.1827552898       -2.9344894300
 H         -3.9407075505        2.3689601688       -2.7684203210
 H         -2.4971943966        2.4697068969       -1.7471387932
 H         -2.4528772557        2.2853321721        1.0373576965
 H         -1.2196638556        4.0498288336        2.2274161935
 H          1.2503986451        4.0603656690        2.1961268959
 H          2.4678926320        2.2963279435        0.9881002469
 H          3.9680866124        1.7736896199       -3.1576961352
 H          2.5778945350        0.6858919528       -3.0266614589
 H          2.5913084863        2.1954280355       -2.1281214988
 H          5.8619731046        1.0530347036       -1.9756615245
 H          6.7944979196        2.7280745613       -0.4941734377
 H          8.6487484785        4.2943532775       -0.6372981982
 H         12.9177373517        2.5539403592       -0.9220330923
 H         13.4425181419        4.1032659850       -0.2720246401
 H         12.7950452755        2.8807751289        0.8160592627
 H         10.3044797009        5.0256524188       -1.9688001759
 H         11.3962725625        3.7691399737       -2.5459912299
 H         12.0468329299        5.2745022611       -1.8893858487
 H         11.0803920601        4.5411982952        1.6727212587
 H         11.8682446830        5.7308121605        0.6311499440
 H         10.1253868628        5.4919680364        0.5379688212
 H         11.4676894161        1.1643599700        0.1502328857
 H         11.3589756959       -1.4379296327        0.6466192403
 H         13.0768436596       -4.4603552441        1.4398409534
 H         12.5092749820       -2.8843221754        1.9805940104
 H         12.7080945143       -3.2165580515        0.2505892684
 H         11.1217239842       -4.8060785223       -0.9216719023
 H          9.9151048112       -5.6975812697        0.0018805569
 H         11.6279124458       -6.0239967973        0.2536405225
 H          9.6338847793       -5.2298781561        2.4987809817
 H         11.3464836671       -5.5489360968        2.7613211079
 H         10.6425883045       -4.0132975483        3.2775772955
 H          8.2977992341       -4.4274607942        0.8815619965
 H          6.5790271318       -2.7763143067        0.3975019247
 H          5.4981243580       -1.0462157350        1.7198606751
 H          2.1454044036       -1.9346355490        1.3505857531
 H          3.3967114250       -1.6538394040        2.5714945190
 H          2.1504695366       -0.4348565105        2.2664590718
 H          2.4512670799       -1.9243448195       -1.9596967266
 H          1.2195897560       -3.5967243149       -3.2788464957
 H         -1.2492483046       -3.5475991377       -3.3312117453
 H         -2.4685952490       -1.8362236800       -2.0505477819
