  73
  -102.594949425300       0.288370428152044      !
 C          2.8713360128        3.9229710743        1.2577091100
 C          1.7347127929        2.9669008309        1.0936987580
 C          0.7021044760        3.2222611739        0.1933640390
 C         -0.3396902072        2.3349158798        0.0206640690
 C         -1.4379592432        2.6664071348       -0.9389301207
 C         -0.3522785408        1.1035364136        0.7177358652
 B         -1.3230977852       -0.0537349348        0.3053675337
 C         -0.8114739220       -1.4453455591       -0.0128155498
 C         -1.6697637803       -2.5816138139        0.0806798034
 C         -1.2279797955       -3.8658642932        0.0379637834
 C          0.1565069407       -4.1381546035       -0.1541123003
 C          0.6293607255       -5.4434711511       -0.2287898261
 N          1.0282149108       -6.5282526463       -0.2728868159
 C          1.0307153839       -3.0522622748       -0.3168102436
 C          0.5781670326       -1.7536565754       -0.2874170116
 N          1.5212655266       -0.7425898195       -0.4866560510
 C          2.7204333130       -0.6317781574        0.1805272899
 C          3.2288550763       -1.4043278177        1.2174252937
 C          4.4607117633       -1.0555584193        1.7395881610
 C          5.1763333223        0.0324424105        1.2460356166
 C          4.6774109859        0.8040611500        0.2097141424
 C          3.4438868694        0.4751820992       -0.3262861791
 C          2.6455862930        1.0261053742       -1.3893796371
 C          2.8338915363        2.0643479819       -2.2861805845
 C          1.8712396433        2.2819604301       -3.2568415506
 C          0.7501369236        1.4628371450       -3.3516413431
 C          0.5401186795        0.4237838542       -2.4637120166
 C          1.4797244329        0.2297157112       -1.4631456387
 C         -2.8875497024        0.2207763993        0.2529041049
 C         -3.5273597274        0.7776378603        1.3718630917
 C         -2.7617835841        1.0902956651        2.6220212374
 C         -4.8935518745        1.0066364113        1.3570336850
 C         -5.6698051731        0.7071957676        0.2459486320
 C         -7.1478584547        0.9542338455        0.2574453360
 C         -5.0364256154        0.1638667525       -0.8574073757
 C         -3.6677015414       -0.0792277151       -0.8717450492
 C         -3.0825505789       -0.6094551609       -2.1495100904
 C          0.6189111356        0.9166382625        1.7299871585
 C          0.5447857605       -0.2323527293        2.6884689620
 C          1.6516335316        1.8245539633        1.8794225330
 H          2.9991014014        4.5296494297        0.3643468848
 H          3.7942602945        3.3833000315        1.4611627756
 H          2.6842170670        4.5929129896        2.0982607073
 H          0.7272752919        4.1319279052       -0.3900926420
 H         -1.2116282337        3.5779624008       -1.4869295822
 H         -2.3766273322        2.8012802230       -0.4041033475
 H         -1.5764327627        1.8528800204       -1.6436810587
 H         -2.7206840503       -2.3911037241        0.2377897936
 H         -1.9100421712       -4.6963743337        0.1449450312
 H          2.0707695872       -3.2476462481       -0.5356091281
 H          2.6824253295       -2.2505478117        1.6020825749
 H          4.8779720303       -1.6409348252        2.5451711833
 H          6.1364070872        0.2717265927        1.6777611302
 H          5.2382912564        1.6422759535       -0.1750017406
 H          3.7173149104        2.6822524346       -2.2352882295
 H          1.9990207884        3.0859418869       -3.9658129734
 H          0.0340781974        1.6390891155       -4.1406170112
 H         -0.3170677756       -0.2214013934       -2.5479138106
 H         -1.9291095495        1.7532997089        2.4008692788
 H         -3.4031861828        1.5636932757        3.3617242497
 H         -2.3569098376        0.1744441366        3.0483119973
 H         -5.3692605106        1.4183150081        2.2364522183
 H         -7.5573044494        0.9109278226       -0.7487877867
 H         -7.6487560521        0.1988375848        0.8636465700
 H         -7.3716118031        1.9286166452        0.6878525406
 H         -5.6153556484       -0.0674226056       -1.7408455848
 H         -2.8154051325        0.2178726736       -2.8094405560
 H         -2.1970414145       -1.2031567298       -1.9550306687
 H         -3.8096723014       -1.2264101235       -2.6736168278
 H          0.0094874774       -1.0737200149        2.2605571811
 H          1.5423420401       -0.5446474380        2.9886237367
 H          0.0133633280        0.0826996676        3.5882454406
 H          2.4146453066        1.6394010220        2.6226181119
  73
  -102.594762609900       0.236644442008207      !
 C          2.8604052184        3.9527311213        1.1862087485
 C          1.7298119066        2.9848778109        1.0537727105
 C          0.6865769237        3.2335562412        0.1612624665
 C         -0.3530181823        2.3429091479        0.0015628794
 C         -1.4610383155        2.6647953663       -0.9502668810
 C         -0.3555403094        1.1148259172        0.7058109631
 B         -1.3244297089       -0.0468736538        0.3055994832
 C         -0.8137707829       -1.4379556312       -0.0165778025
 C         -1.6743221062       -2.5727512695        0.0739652497
 C         -1.2361291378       -3.8579541527        0.0274000827
 C          0.1472414699       -4.1329770582       -0.1680442964
 C          0.6179233828       -5.4391153536       -0.2434344125
 N          1.0137566291       -6.5249644087       -0.2851315928
 C          1.0229517095       -3.0485688342       -0.3303272983
 C          0.5745713453       -1.7484989849       -0.2952663725
 N          1.5236720139       -0.7410297760       -0.4870604280
 C          2.7194498341       -0.6424167599        0.1883900424
 C          3.2144506430       -1.4228882547        1.2258962207
 C          4.4422812511       -1.0817851392        1.7626110046
 C          5.1664090593        0.0070704532        1.2835729927
 C          4.6818646629        0.7851578561        0.2453848805
 C          3.4541688175        0.4620471397       -0.3069930201
 C          2.6683482867        1.0221868829       -1.3747986432
 C          2.8743859855        2.0590734275       -2.2691537725
 C          1.9200171150        2.2905345242       -3.2447035021
 C          0.7896259282        1.4853282721       -3.3467347582
 C          0.5639703247        0.4452043874       -2.4639905174
 C          1.4958628440        0.2362458824       -1.4592380521
 C         -2.8916154532        0.2182296372        0.2633427488
 C         -3.5286975609        0.7608505944        1.3894395307
 C         -2.7573026446        1.0720210660        2.6363676309
 C         -4.8983936657        0.9760411172        1.3856843737
 C         -5.6781999943        0.6758133796        0.2792059643
 C         -7.1548304769        0.9327520842        0.2747666040
 C         -5.0456913189        0.1476757264       -0.8336064380
 C         -3.6761639627       -0.0835446550       -0.8580832070
 C         -3.0971722863       -0.6087209045       -2.1408947711
 C          0.6251144940        0.9361103068        1.7097903717
 C          0.5605670052       -0.2073696255        2.6753821147
 C          1.6580447760        1.8475625420        1.8452676976
 H          3.6936732453        3.5046854469        1.7219771270
 H          2.5382540531        4.8406965056        1.7317869598
 H          3.1993530197        4.2751066534        0.2033320642
 H          0.7048464650        4.1416473925       -0.4249050835
 H         -1.2476858383        3.5803641670       -1.4971455269
 H         -2.3971981512        2.7887397698       -0.4084673842
 H         -1.5961998059        1.8518094134       -1.6563975467
 H         -2.7248162686       -2.3807108537        0.2314361447
 H         -1.9204280165       -4.6867331519        0.1337103849
 H          2.0622200317       -3.2456842707       -0.5517803773
 H          2.6607072142       -2.2686328079        1.6010998610
 H          4.8484195678       -1.6729785071        2.5696149630
 H          6.1212301973        0.2422905440        1.7288936811
 H          5.2474399295        1.6262178469       -0.1253796786
 H          3.7662031279        2.6646304828       -2.2137723303
 H          2.0613478474        3.0944491559       -3.9511828943
 H          0.0789063607        1.6727570889       -4.1378461651
 H         -0.3000979587       -0.1897063968       -2.5568185214
 H         -3.3951701690        1.5436910119        3.3802170311
 H         -2.3493238450        0.1558126766        3.0593643074
 H         -1.9262389025        1.7359292569        2.4112180219
 H         -5.3700172007        1.3749912920        2.2730824106
 H         -7.6814566272        0.1448394516       -0.2596752345
 H         -7.5417387704        0.9908658285        1.2892523387
 H         -7.3687554159        1.8779270501       -0.2257437244
 H         -5.6293527917       -0.0844103233       -1.7138372104
 H         -2.9377468173        0.2120452584       -2.8430014542
 H         -2.1532728364       -1.1099570625       -1.9635762913
 H         -3.7840927845       -1.3123508456       -2.6076543381
 H          0.0359488267        0.1124472994        3.5772583529
 H          0.0228700531       -1.0514523255        2.2565889313
 H          1.5604512531       -0.5163488189        2.9695619797
 H          2.4280696855        1.6662512991        2.5820909148
  73
  -102.594511592000       0.181441433837503      !
 C          2.8596522381        3.9409971755        1.2573186343
 C          1.7247424766        2.9800194123        1.1146623552
 C          0.6959295253        3.2303911892        0.2062315678
 C         -0.3372518451        2.3368887083        0.0223368103
 C         -1.4320518995        2.6649922125       -0.9425373872
 C         -0.3479740149        1.1034162149        0.7170812237
 B         -1.3194300533       -0.0528649651        0.3045263531
 C         -0.8112946014       -1.4458445461       -0.0129843439
 C         -1.6702471302       -2.5808533738        0.0869118509
 C         -1.2295613178       -3.8656921489        0.0469875151
 C          0.1535935643       -4.1396852940       -0.1512470517
 C          0.6266692672       -5.4452096207       -0.2215139792
 N          1.0267486608       -6.5299162362       -0.2613141264
 C          1.0278433687       -3.0548887215       -0.3219305525
 C          0.5770125425       -1.7558189054       -0.2926647929
 N          1.5206844066       -0.7456525492       -0.4933604086
 C          2.7191747284       -0.6349079357        0.1750960486
 C          3.2290588538       -1.4118916154        1.2078928565
 C          4.4596433732       -1.0626931057        1.7327167716
 C          5.1712534100        0.0314653425        1.2472837931
 C          4.6711897829        0.8068598747        0.2146437024
 C          3.4406791632        0.4755645808       -0.3267689988
 C          2.6433070317        1.0266638392       -1.3906968681
 C          2.8325195184        2.0637679451       -2.2886170201
 C          1.8719270510        2.2801137684       -3.2618688308
 C          0.7519364284        1.4601051821       -3.3586039017
 C          0.5411844425        0.4212633621       -2.4703672467
 C          1.4785938119        0.2286881891       -1.4675287710
 C         -2.8845533335        0.2208444556        0.2545756672
 C         -3.5235757124        0.7707922151        1.3756816269
 C         -2.7585986168        1.0734887627        2.6287047417
 C         -4.8909990340        1.0026961155        1.3619673984
 C         -5.6655274412        0.7117812644        0.2500457695
 C         -7.1443106109        0.9553432510        0.2409314280
 C         -5.0313291102        0.1724900639       -0.8573415199
 C         -3.6649350292       -0.0743873610       -0.8723890156
 C         -3.0797367783       -0.6044264527       -2.1503783781
 C          0.6223116419        0.9166406490        1.7294608702
 C          0.5530822089       -0.2369322571        2.6828400929
 C          1.6493625449        1.8313160470        1.8888114482
 H          2.4990590210        4.9682111247        1.2855112634
 H          3.5254592341        3.8473795723        0.3982488119
 H          3.4337779309        3.7390967708        2.1585508456
 H          0.7180827320        4.1448223495       -0.3699107812
 H         -2.3712510792        2.8079766858       -0.4105408643
 H         -1.5722219257        1.8466464604       -1.6410255706
 H         -1.2008928768        3.5714242796       -1.4970042174
 H         -2.7205175705       -2.3893192327        0.2471472214
 H         -1.9119053604       -4.6950669383        0.1607546799
 H          2.0666108241       -3.2518144010       -0.5453613642
 H          2.6847325686       -2.2616445101        1.5877188178
 H          4.8783088039       -1.6522126003        2.5345230732
 H          6.1292055214        0.2729140191        1.6822552735
 H          5.2302681760        1.6500001295       -0.1614512674
 H          3.7166787773        2.6812259840       -2.2402007092
 H          2.0013337053        3.0834639635       -3.9712100742
 H          0.0378113958        1.6346567199       -4.1497089422
 H         -0.3145225244       -0.2256840138       -2.5566826012
 H         -1.9235698147        1.7352371227        2.4125338078
 H         -3.3993001498        1.5440572469        3.3707920768
 H         -2.3570106909        0.1536560395        3.0496937259
 H         -5.3637392356        1.4092544841        2.2453575620
 H         -7.4436915700        1.5631649417        1.0911623837
 H         -7.4449169313        1.4597194742       -0.6758402319
 H         -7.6806368309        0.0073527884        0.2907943108
 H         -5.6129713512       -0.0527210028       -1.7406571749
 H         -2.8069829141        0.2224340719       -2.8083667881
 H         -2.1979160219       -1.2034279479       -1.9548738841
 H         -3.8090484798       -1.2166637503       -2.6767044461
 H          1.5519319605       -0.5493998961        2.9773944576
 H          0.0254124111        0.0735276879        3.5861672326
 H          0.0169311090       -1.0768540859        2.2536376434
 H          2.4084586529        1.6455181425        2.6358855950
  73
  -102.593984441800       0.103866383671522      !
 C          2.3823336078        4.2805083683       -1.0930498507
 C          1.3518403950        3.2490563232       -0.7674129118
 C          0.8620410420        2.4122035070       -1.7646309238
 C         -0.0748287102        1.4359579488       -1.4897705290
 C         -0.6198413379        0.6044856710       -2.6074186178
 C         -0.5219839648        1.2312897989       -0.1591837076
 B         -1.3482352655       -0.0479821467        0.2013842055
 C         -0.8526207946       -1.4193188335       -0.2197895268
 C         -1.7554649218       -2.5048596344       -0.4111997938
 C         -1.4127076418       -3.6696986148       -1.0231273297
 C         -0.0763151602       -3.8754460660       -1.4691224896
 C          0.3025237289       -5.0665435631       -2.0792817202
 N          0.6157004271       -6.0477851118       -2.6049069420
 C          0.8662950230       -2.8625873052       -1.2366758777
 C          0.5177883081       -1.6883053955       -0.6084335678
 N          1.5329506591       -0.7521955602       -0.3876297435
 C          1.9012875932       -0.2302013493        0.8346941127
 C          1.4005098146       -0.5189604110        2.0939424012
 C          1.9752983410        0.1194683687        3.1782850385
 C          3.0275916925        1.0152210301        3.0176417364
 C          3.5588600492        1.2737210428        1.7654692501
 C          3.0030996994        0.6390128579        0.6674317576
 C          3.3324303690        0.6072884153       -0.7324136807
 C          4.3079714250        1.2280828657       -1.4939392807
 C          4.3613284259        0.9570175139       -2.8507313761
 C          3.4616382567        0.0722669374       -3.4395887935
 C          2.4846322143       -0.5642433654       -2.6973047793
 C          2.4171723544       -0.2892981926       -1.3369594373
 C         -2.7311024932        0.0926731593        0.9699238138
 C         -3.0374816358       -0.6763125492        2.1043704699
 C         -2.0571269082       -1.6222434166        2.7374606793
 C         -4.2654094986       -0.5356196668        2.7373127103
 C         -5.2218214015        0.3596881381        2.2888322922
 C         -6.5483441219        0.4809438811        2.9751730788
 C         -4.9142014608        1.1266987196        1.1765241541
 C         -3.6954280771        1.0112825358        0.5234349636
 C         -3.4801680858        1.8573585474       -0.6958534548
 C         -0.1187477202        2.1663669012        0.8203163268
 C         -0.6918150825        2.0984609271        2.1999983790
 C          0.8228250991        3.1287295288        0.5156555988
 H          3.2155103533        3.8186847485       -1.6217121970
 H          2.7543138426        4.7611745362       -0.1920710349
 H          1.9620547800        5.0460974115       -1.7459983729
 H          1.2269835755        2.5318711900       -2.7750860839
 H         -0.2646405454       -0.4205948553       -2.5358059371
 H         -0.3179932174        1.0082325977       -3.5713083146
 H         -1.7049977012        0.5662941608       -2.5576050079
 H         -2.7756827658       -2.3585394271       -0.0898608392
 H         -2.1384385307       -4.4536116160       -1.1815522236
 H          1.8992745921       -3.0385535272       -1.5010775857
 H          0.6003375186       -1.2265677284        2.2193520302
 H          1.6046733005       -0.0856532004        4.1716986289
 H          3.4472267447        1.4987055056        3.8867789590
 H          4.3953497635        1.9455269422        1.6482984814
 H          5.0136143540        1.9047577682       -1.0361750956
 H          5.1134580614        1.4310531217       -3.4631972517
 H          3.5320224668       -0.1257136361       -4.4984505939
 H          1.8026436571       -1.2540242272       -3.1675313704
 H         -1.4428130997       -1.0867316826        3.4631399328
 H         -2.5821064106       -2.4126278917        3.2698393603
 H         -1.4109309310       -2.0724426293        1.9935744181
 H         -4.4717725820       -1.1321932800        3.6151852609
 H         -6.4404307211        0.3560753039        4.0506106622
 H         -7.0022668226        1.4486438887        2.7750162942
 H         -7.2265504059       -0.2932219374        2.6139734320
 H         -5.6464256488        1.8270561441        0.7991771744
 H         -3.6200296616        1.2575579144       -1.5956022136
 H         -4.1934488857        2.6778641597       -0.7260076610
 H         -2.4729206506        2.2624981950       -0.7110768306
 H         -0.6639043760        1.0779383434        2.5679327033
 H         -0.1403963504        2.7410415529        2.8820807321
 H         -1.7343066829        2.4138966121        2.1858591019
 H          1.1624336433        3.8023285838        1.2898821636
  73
  -102.593547616400       6.542202109731576E-002 !
 C          2.9380628158        3.7112449410        1.6778770554
 C          1.7878858589        2.8031428209        1.3876838518
 C          0.8276016598        3.1267885119        0.4319847211
 C         -0.2287266577        2.2817635580        0.1561065385
 C         -1.2626874053        2.6844517740       -0.8459838031
 C         -0.3215256028        1.0263789583        0.7976615708
 B         -1.3228992706       -0.0788752026        0.3223894774
 C         -0.8096075770       -1.4695006611       -0.0048485602
 C         -1.6491708263       -2.6152201600        0.1039487778
 C         -1.1820099550       -3.8921352253        0.0899053601
 C          0.2082997265       -4.1421697939       -0.0887715486
 C          0.7064243389       -5.4403425975       -0.1200004994
 N          1.1271697818       -6.5173383472       -0.1265746333
 C          1.0630332407       -3.0460887627       -0.2817986669
 C          0.5845122544       -1.7555251021       -0.2796924392
 N          1.4991834261       -0.7275168649       -0.5292161026
 C          2.7067066069       -0.5475993130        0.1082124228
 C          3.2763283812       -1.2653053322        1.1528707698
 C          4.5006956895       -0.8444330136        1.6366909064
 C          5.1570318601        0.2578193892        1.0947360901
 C          4.6027890680        0.9706848457        0.0451805623
 C          3.3731161140        0.5712614827       -0.4501181411
 C          2.5361927485        1.0501403862       -1.5175070486
 C          2.6686924918        2.0579783626       -2.4576613984
 C          1.6872407328        2.1933955343       -3.4254526900
 C          0.6025106795        1.3239321028       -3.4719380052
 C          0.4458663664        0.3167701395       -2.5358062070
 C          1.4036755589        0.2049941417       -1.5409051226
 C         -2.8758360760        0.2408347753        0.2339182958
 C         -3.5291101266        0.8660578512        1.3101386793
 C         -2.8127411544        1.2064634023        2.5829291259
 C         -4.8864501300        1.1434001790        1.2452602021
 C         -5.6444233928        0.8271209691        0.1281793303
 C         -7.1040246092        1.1608150041        0.0682708082
 C         -4.9995271502        0.2191139844       -0.9345886312
 C         -3.6416514392       -0.0725918930       -0.9001010869
 C         -3.0470970656       -0.6587883593       -2.1484724909
 C          0.5900546554        0.7546411372        1.8497539478
 C          0.4299025794       -0.4719853431        2.6906587130
 C          1.6299672712        1.6246645371        2.1098581697
 H          3.8709318401        3.1489954865        1.6488624593
 H          2.8425252712        4.1397133513        2.6759844495
 H          2.9888533710        4.5229785989        0.9567282955
 H          0.9148308991        4.0600984624       -0.1064922639
 H         -2.2174852738        2.8520117711       -0.3500529302
 H         -1.4063517137        1.8912241619       -1.5733409901
 H         -0.9698505153        3.5948960752       -1.3633114283
 H         -2.7034604613       -2.4404662482        0.2572095859
 H         -1.8477374135       -4.7333885485        0.2143242290
 H          2.1057347168       -3.2273989730       -0.5006223513
 H          2.7876900182       -2.1275918285        1.5766327401
 H          4.9613166773       -1.3864653269        2.4487662431
 H          6.1146679663        0.5525231364        1.4967737196
 H          5.1177095074        1.8175850453       -0.3826118054
 H          3.5255051937        2.7140873617       -2.4448340000
 H          1.7736335180        2.9706408905       -4.1695539637
 H         -0.1281065364        1.4335829643       -4.2598337158
 H         -0.3801513035       -0.3701636658       -2.5839851930
 H         -1.8421616035        1.6459563426        2.3731376895
 H         -3.3972355336        1.9041186204        3.1786531340
 H         -2.6575744639        0.3050808293        3.1767549144
 H         -5.3684461049        1.6073646120        2.0947003994
 H         -7.5793500467        0.9883003573        1.0316942833
 H         -7.2365893071        2.2129530498       -0.1868813914
 H         -7.6081655537        0.5624764525       -0.6867351937
 H         -5.5623896014       -0.0234601905       -1.8253046742
 H         -2.6782940685        0.1418136731       -2.7916597259
 H         -2.2280570640       -1.3283471221       -1.9151347249
 H         -3.8015416430       -1.2096468790       -2.7064087836
 H          0.6898202426       -1.3631690433        2.1240699591
 H          1.0690628572       -0.4232814604        3.5696997504
 H         -0.6048377780       -0.5871904956        3.0027266339
 H          2.3414935359        1.3882380144        2.8885465363
  73
  -102.593391171900       5.544048776583108E-002 !
 C          2.8370357808        3.9978419796        1.1799755527
 C          1.7129690322        3.0262680379        1.0241661663
 C          0.6822078583        3.2530710436        0.1142118023
 C         -0.3478021122        2.3501389994       -0.0473532416
 C         -1.4426057096        2.6478593990       -1.0216544546
 C         -0.3527911239        1.1322046485        0.6752021610
 B         -1.3238614459       -0.0331547095        0.2954041473
 C         -0.8166821331       -1.4275631797       -0.0207908336
 C         -1.6756636093       -2.5590033683        0.0923326193
 C         -1.2454870614       -3.8470202763        0.0172465559
 C          0.1282011556       -4.1268500846       -0.2219557538
 C          0.5886665266       -5.4345286673       -0.3306410530
 N          0.9767150967       -6.5214581547       -0.4014642003
 C          1.0067801875       -3.0437784664       -0.3774112746
 C          0.5651461733       -1.7423901560       -0.3159938731
 N          1.5264102371       -0.7408925923       -0.4939218149
 C          2.7032695942       -0.6401007570        0.2123617483
 C          3.1760378976       -1.4268617499        1.2554143790
 C          4.3943131126       -1.0913943749        1.8168934409
 C          5.1302936730       -0.0026030604        1.3559722493
 C          4.6685567267        0.7807487477        0.3111782788
 C          3.4498451027        0.4647284751       -0.2652721697
 C          2.6925076425        1.0217784858       -1.3549551210
 C          2.9157579715        2.0583212458       -2.2458461398
 C          1.9939731309        2.2719673544       -3.2563506410
 C          0.8840223653        1.4449009689       -3.4029989113
 C          0.6411454918        0.4072660333       -2.5220251595
 C          1.5298727472        0.2258124567       -1.4743929241
 C         -2.8948776005        0.2156369145        0.2868027693
 C         -3.5165229462        0.7741095547        1.4129649023
 C         -2.7291392063        1.1255879618        2.6385226916
 C         -4.8887472340        0.9789685140        1.4266967217
 C         -5.6846644986        0.6422975302        0.3436543669
 C         -7.1647383864        0.8775141422        0.3598268694
 C         -5.0660581747        0.0981846239       -0.7712285428
 C         -3.6961267670       -0.1167452305       -0.8153495257
 C         -3.1158333206       -0.6779686302       -2.0802656539
 C          0.6198380480        0.9734669096        1.6919464316
 C          0.5544220878       -0.1592187672        2.6703976798
 C          1.6409543203        1.8953772847        1.8287896982
 H          2.6728777166        4.6286380497        2.0551328604
 H          2.9188490990        4.6419328787        0.3074743369
 H          3.7768875561        3.4679904739        1.3257240992
 H          0.6983846233        4.1533096094       -0.4840143751
 H         -2.4072931291        2.6497588209       -0.5188236713
 H         -1.4763356143        1.8821256707       -1.7919190091
 H         -1.2864889838        3.6136653403       -1.4960921945
 H         -2.7159605284       -2.3677278700        0.3067983573
 H         -1.9302766505       -4.6733067363        0.1412111858
 H          2.0438989881       -3.2407378370       -0.6097563542
 H          2.6137067935       -2.2752583040        1.6117798621
 H          4.7848293581       -1.6879615793        2.6276415870
 H          6.0781244718        0.2265937878        1.8190099298
 H          5.2478115242        1.6165219709       -0.0511298729
 H          3.7955126001        2.6776201531       -2.1603271616
 H          2.1488977193        3.0757110692       -3.9600647611
 H          0.2067851058        1.6114429145       -4.2275092587
 H         -0.1942290074       -0.2607964719       -2.6511392865
 H         -1.8967123432        1.7751895192        2.3794732524
 H         -3.3555502278        1.6286719905        3.3713955098
 H         -2.3223365432        0.2230409555        3.0908495178
 H         -5.3473192340        1.3993348452        2.3110575048
 H         -7.4115135643        1.7555101804       -0.2381829861
 H         -7.6939716175        0.0261287408       -0.0639660193
 H         -7.5205110058        1.0444160743        1.3735769305
 H         -5.6651859098       -0.1567919681       -1.6345360644
 H         -2.9426648590       -1.7488899963       -1.9828976747
 H         -3.7937158700       -0.5182696591       -2.9165397585
 H         -2.1649731625       -0.2052133753       -2.3007820544
 H          1.5545652873       -0.4743474467        2.9572978497
 H          0.0436612120        0.1752606843        3.5747559358
 H          0.0051997066       -1.0027099473        2.2654816151
 H          2.4031259120        1.7328692940        2.5782430103
  73
  -102.592975120000       3.569626918023631E-002 !
 C          2.9645526414        3.8982464975        1.2004268336
 C          1.7959047066        2.9769420083        1.0620273830
 C          0.7718800269        3.2664472573        0.1627055007
 C         -0.3017854355        2.4154782861       -0.0140494978
 C         -1.3776240180        2.8335285713       -0.9698890299
 C         -0.3515561059        1.1837623933        0.6730318952
 B         -1.3277378669        0.0258931376        0.2562892936
 C         -0.8274537494       -1.3717838558       -0.0453526065
 C         -1.7095637596       -2.4909302050        0.0532427182
 C         -1.2976258932       -3.7849168684        0.0277834762
 C          0.0825305050       -4.0906587524       -0.1454354030
 C          0.5259818345       -5.4072351720       -0.1937159508
 N          0.8991902230       -6.5019180004       -0.2121183954
 C          0.9816489541       -3.0256905208       -0.3108498130
 C          0.5582915996       -1.7170382723       -0.2975735338
 N          1.5269985181       -0.7294484852       -0.4873662736
 C          2.7266182789       -0.6533138548        0.1840898126
 C          3.2105816731       -1.4418143533        1.2208769087
 C          4.4458917373       -1.1227551552        1.7542175850
 C          5.1878758771       -0.0473024218        1.2728476061
 C          4.7140805161        0.7394304119        0.2361947746
 C          3.4792653011        0.4385786635       -0.3128979810
 C          2.6989395033        1.0146754847       -1.3762846573
 C          2.9174241500        2.0500160596       -2.2701827324
 C          1.9610040514        2.3005293930       -3.2387029246
 C          0.8126609374        1.5185649607       -3.3319639180
 C          0.5724388754        0.4832393567       -2.4480677317
 C          1.5109672272        0.2525700525       -1.4545054328
 C         -2.8973624007        0.2760972244        0.2294319011
 C         -3.5500501451        0.7747468386        1.3659063899
 C         -2.7849497330        1.1815794980        2.5891336722
 C         -4.9346576295        0.8364714607        1.4038528706
 C         -5.7128062253        0.4468632094        0.3230667364
 C         -7.2083840576        0.4891063506        0.3961674061
 C         -5.0631236903        0.0088883664       -0.8197837851
 C         -3.6796153628       -0.0676335052       -0.8877069962
 C         -3.0585706719       -0.4816790192       -2.1902572502
 C          0.6120561755        0.9628657675        1.6857746572
 C          0.4999162393       -0.1799608370        2.6483379302
 C          1.6758665549        1.8356171331        1.8403992063
 H          2.6334436418        4.9154946576        1.4055867330
 H          3.5289539650        3.9174533048        0.2683402859
 H          3.6254185356        3.5739019990        2.0001939574
 H          0.8231613846        4.1769919326       -0.4178720696
 H         -0.9430478481        3.1455506250       -1.9176172801
 H         -1.9228968778        3.6833582861       -0.5577643805
 H         -2.0829280581        2.0302965548       -1.1380996157
 H         -2.7577295023       -2.2771858713        0.2000220905
 H         -2.0003776355       -4.5982719420        0.1335786680
 H          2.0191283009       -3.2474817182       -0.5156518019
 H          2.6434268660       -2.2777620949        1.5982517376
 H          4.8433302270       -1.7210847277        2.5603464105
 H          6.1479804456        0.1712460492        1.7152176648
 H          5.2946598756        1.5700356535       -0.1349993250
 H          3.8210417229        2.6387753274       -2.2223544870
 H          2.1135572324        3.1021478281       -3.9457260797
 H          0.1003973720        1.7200751041       -4.1186962073
 H         -0.3095998693       -0.1274580564       -2.5250558559
 H         -3.4205501758        1.7377759396        3.2741482717
 H         -2.4148667426        0.2973055942        3.1062933537
 H         -1.9312024956        1.7953141986        2.3180115021
 H         -5.4203685763        1.1875362677        2.3037060215
 H         -7.5439907458        1.3109969856        1.0246165887
 H         -7.6441307822        0.5984346086       -0.5941616187
 H         -7.5829839216       -0.4394977110        0.8293818646
 H         -5.6473229843       -0.2692997188       -1.6859431187
 H         -3.8140565661       -0.8722887768       -2.8680902980
 H         -2.5838890397        0.3747803001       -2.6697246950
 H         -2.3044401679       -1.2460245376       -2.0301989458
 H          0.0567974035        0.1765204599        3.5796946410
 H         -0.1298376245       -0.9711730350        2.2555268645
 H          1.4841809934       -0.5765217022        2.8852359198
 H          2.4256144700        1.6222002490        2.5894868571
  73
  -102.592904288900       3.311853428734007E-002 !
 C          2.9231531590        3.8167981769        1.4572295368
 C          1.7759043593        2.8861816814        1.2333386307
 C          0.7677435801        3.1857897874        0.3196683336
 C         -0.2863868456        2.3225514504        0.0999836240
 C         -1.3639426113        2.7016805532       -0.8652464619
 C         -0.3323407712        1.0729378765        0.7589414150
 B         -1.3209999710       -0.0572704569        0.3161435390
 C         -0.8109495793       -1.4493984289       -0.0051419545
 C         -1.6639332199       -2.5867626292        0.0983984668
 C         -1.2152535728       -3.8695930941        0.0714076244
 C          0.1711953665       -4.1373866607       -0.1140105402
 C          0.6487989611       -5.4426799134       -0.1621855561
 N          1.0506583374       -6.5268020208       -0.1809701642
 C          1.0403079269       -3.0510518330       -0.2946813847
 C          0.5805036993       -1.7535372243       -0.2799442085
 N          1.5140273270       -0.7381097982       -0.5067834194
 C          2.7213053279       -0.5974320040        0.1414849819
 C          3.2638055034       -1.3444970439        1.1797538030
 C          4.4948827418       -0.9617990935        1.6786861479
 C          5.1812745892        0.1330132130        1.1596881150
 C          4.6506771253        0.8783992926        0.1203334541
 C          3.4157246298        0.5168563820       -0.3905573018
 C          2.5925544689        1.0394259104       -1.4484085886
 C          2.7476908005        2.0700567796       -2.3602057381
 C          1.7685046061        2.2555091119       -3.3212549859
 C          0.6638955671        1.4122813127       -3.3911093138
 C          0.4861140000        0.3816399414       -2.4859606233
 C          1.4416400342        0.2206428803       -1.4953751868
 C         -2.8801458470        0.2401757286        0.2388604420
 C         -3.5368205520        0.8364807501        1.3281836790
 C         -2.8083177861        1.1918798905        2.5898597987
 C         -4.9032236396        1.0676186517        1.2852357099
 C         -5.6652845802        0.7372477804        0.1742967279
 C         -7.1431703595        0.9837636115        0.1576692753
 C         -5.0149270846        0.1668612375       -0.9055004197
 C         -3.6474754735       -0.0792496472       -0.8921127818
 C         -3.0450532538       -0.6262429558       -2.1544692635
 C          0.6215939296        0.8327631052        1.7807397135
 C          0.5064615790       -0.3690963692        2.6641451312
 C          1.6624727401        1.7189513338        1.9799859992
 H          3.0085272129        4.5332568999        0.6439974123
 H          3.8519719504        3.2545407246        1.5392252199
 H          2.7871366414        4.3697647540        2.3875942080
 H          0.8189581790        4.1126116282       -0.2342501724
 H         -2.3007068580        2.8654024744       -0.3348665569
 H         -1.5268749783        1.8996278234       -1.5780857966
 H         -1.1016948025        3.6097707157       -1.4028478065
 H         -2.7156681287       -2.3994267215        0.2539191160
 H         -1.8925762742       -4.7025302567        0.1888676780
 H          2.0807231263       -3.2443013397       -0.5137890122
 H          2.7478492743       -2.1981050886        1.5885756384
 H          4.9358913054       -1.5274058709        2.4856071923
 H          6.1425878444        0.3981226376        1.5733194095
 H          5.1874748161        1.7219105913       -0.2866444586
 H          3.6191065776        2.7060100077       -2.3291967342
 H          1.8710161074        3.0521533901       -4.0424494684
 H         -0.0652707483        1.5625830174       -4.1736087551
 H         -0.3567429634       -0.2832894834       -2.5506492497
 H         -3.4057277405        1.8613566779        3.2045600521
 H         -2.6078275447        0.2907921678        3.1699384554
 H         -1.8593324930        1.6692137351        2.3642911823
 H         -5.3895886770        1.5062498480        2.1455953928
 H         -7.5341357198        0.9342269948       -0.8555992985
 H         -7.6544517512        0.2309896259        0.7585353091
 H         -7.3755356559        1.9601527332        0.5786379001
 H         -5.5805759903       -0.0806485422       -1.7930923348
 H         -2.2189183136       -1.2924172505       -1.9361613375
 H         -3.7918546408       -1.1710017762       -2.7279043903
 H         -2.6825730122        0.1930619426       -2.7771594268
 H         -0.4696282076       -0.3912311932        3.1443315466
 H          0.5959312778       -1.2875014905        2.0894833635
 H          1.2781936706       -0.3587452920        3.4307928011
 H          2.4096102470        1.5024670931        2.7306259287
