  73
       -103.07382705
 C          2.8713360128        3.9229710743        1.2577091100
 C          1.7347127929        2.9669008309        1.0936987580
 C          0.7021044760        3.2222611739        0.1933640390
 C         -0.3396902072        2.3349158798        0.0206640690
 C         -1.4379592432        2.6664071348       -0.9389301207
 C         -0.3522785408        1.1035364136        0.7177358652
 B         -1.3230977852       -0.0537349348        0.3053675337
 C         -0.8114739220       -1.4453455591       -0.0128155498
 C         -1.6697637803       -2.5816138139        0.0806798034
 C         -1.2279797955       -3.8658642932        0.0379637834
 C          0.1565069407       -4.1381546035       -0.1541123003
 C          0.6293607255       -5.4434711511       -0.2287898261
 N          1.0282149108       -6.5282526463       -0.2728868159
 C          1.0307153839       -3.0522622748       -0.3168102436
 C          0.5781670326       -1.7536565754       -0.2874170116
 N          1.5212655266       -0.7425898195       -0.4866560510
 C          2.7204333130       -0.6317781574        0.1805272899
 C          3.2288550763       -1.4043278177        1.2174252937
 C          4.4607117633       -1.0555584193        1.7395881610
 C          5.1763333223        0.0324424105        1.2460356166
 C          4.6774109859        0.8040611500        0.2097141424
 C          3.4438868694        0.4751820992       -0.3262861791
 C          2.6455862930        1.0261053742       -1.3893796371
 C          2.8338915363        2.0643479819       -2.2861805845
 C          1.8712396433        2.2819604301       -3.2568415506
 C          0.7501369236        1.4628371450       -3.3516413431
 C          0.5401186795        0.4237838542       -2.4637120166
 C          1.4797244329        0.2297157112       -1.4631456387
 C         -2.8875497024        0.2207763993        0.2529041049
 C         -3.5273597274        0.7776378603        1.3718630917
 C         -2.7617835841        1.0902956651        2.6220212374
 C         -4.8935518745        1.0066364113        1.3570336850
 C         -5.6698051731        0.7071957676        0.2459486320
 C         -7.1478584547        0.9542338455        0.2574453360
 C         -5.0364256154        0.1638667525       -0.8574073757
 C         -3.6677015414       -0.0792277151       -0.8717450492
 C         -3.0825505789       -0.6094551609       -2.1495100904
 C          0.6189111356        0.9166382625        1.7299871585
 C          0.5447857605       -0.2323527293        2.6884689620
 C          1.6516335316        1.8245539633        1.8794225330
 H          2.9991014014        4.5296494297        0.3643468848
 H          3.7942602945        3.3833000315        1.4611627756
 H          2.6842170670        4.5929129896        2.0982607073
 H          0.7272752919        4.1319279052       -0.3900926420
 H         -1.2116282337        3.5779624008       -1.4869295822
 H         -2.3766273322        2.8012802230       -0.4041033475
 H         -1.5764327627        1.8528800204       -1.6436810587
 H         -2.7206840503       -2.3911037241        0.2377897936
 H         -1.9100421712       -4.6963743337        0.1449450312
 H          2.0707695872       -3.2476462481       -0.5356091281
 H          2.6824253295       -2.2505478117        1.6020825749
 H          4.8779720303       -1.6409348252        2.5451711833
 H          6.1364070872        0.2717265927        1.6777611302
 H          5.2382912564        1.6422759535       -0.1750017406
 H          3.7173149104        2.6822524346       -2.2352882295
 H          1.9990207884        3.0859418869       -3.9658129734
 H          0.0340781974        1.6390891155       -4.1406170112
 H         -0.3170677756       -0.2214013934       -2.5479138106
 H         -1.9291095495        1.7532997089        2.4008692788
 H         -3.4031861828        1.5636932757        3.3617242497
 H         -2.3569098376        0.1744441366        3.0483119973
 H         -5.3692605106        1.4183150081        2.2364522183
 H         -7.5573044494        0.9109278226       -0.7487877867
 H         -7.6487560521        0.1988375848        0.8636465700
 H         -7.3716118031        1.9286166452        0.6878525406
 H         -5.6153556484       -0.0674226056       -1.7408455848
 H         -2.8154051325        0.2178726736       -2.8094405560
 H         -2.1970414145       -1.2031567298       -1.9550306687
 H         -3.8096723014       -1.2264101235       -2.6736168278
 H          0.0094874774       -1.0737200149        2.2605571811
 H          1.5423420401       -0.5446474380        2.9886237367
 H          0.0133633280        0.0826996676        3.5882454406
 H          2.4146453066        1.6394010220        2.6226181119
