  73
       -117.10400421
 N         -3.6448744382       -0.7935366329       -0.8292247704
 C         -2.5721726047       -0.5492181776       -0.5051092834
 C         -1.2312671603       -0.2564783186       -0.1756790767
 C         -0.7763899533        1.0746078732       -0.1662956513
 N         -1.6670433225        2.1262408093       -0.3702906401
 C         -1.5196544970        3.1298689327       -1.3139552211
 C         -0.5203564942        3.3163644475       -2.2563319871
 C         -0.6334224097        4.3982821312       -3.1096464076
 C         -1.7165622145        5.2699444587       -3.0381915018
 C         -2.7265930360        5.0734617387       -2.1172004315
 C         -2.6340311127        3.9946334539       -1.2485886388
 C         -3.4856954908        3.4912133542       -0.2059462312
 C         -4.6895523707        3.9242629399        0.3326756476
 C         -5.2401556822        3.2109857275        1.3786975266
 C         -4.5953307414        2.0931140144        1.9005802823
 C         -3.3953359825        1.6461302679        1.3815792536
 C         -2.8567763018        2.3367027801        0.3079698539
 C          0.5738596791        1.3391802086        0.0137541655
 C          1.4819854926        0.2985971342        0.1968852194
 N          2.8294943052        0.5839994076        0.4057967179
 C          3.9022278135       -0.0367906951       -0.2134085269
 C          3.9145593896       -1.0056839047       -1.2047259209
 C          5.1404487016       -1.4352590084       -1.6769840814
 C          6.3323135938       -0.9073451482       -1.1883592741
 C          6.3265671942        0.0806838229       -0.2237783496
 C          5.1061058943        0.5249521649        0.2662202629
 C          4.7376038665        1.5266657877        1.2283145802
 C          5.4728509615        2.3820738199        2.0374717890
 C          4.7955098658        3.2238289813        2.8969985565
 C          3.4052799465        3.2037205457        2.9681226225
 C          2.6528002709        2.3603502275        2.1720318559
 C          3.3262775438        1.5350577300        1.2839156390
 C          1.0320411014       -1.0202348416        0.2066330506
 C         -0.3143804935       -1.3040008199        0.0280591129
 N         -0.7574834581       -2.6258654396        0.0495030821
 C         -0.2555390640       -3.6573072519       -0.7250969936
 C          0.7270173235       -3.6291375566       -1.7014838839
 C          1.0241364527       -4.8104185755       -2.3545669610
 C          0.3518842347       -5.9923095294       -2.0555750915
 C         -0.6496408424       -6.0189461298       -1.1050343839
 C         -0.9627391953       -4.8444509070       -0.4345099150
 C         -1.9333893622       -4.5083943432        0.5707044965
 C         -2.8859672359       -5.2463919299        1.2599061136
 C         -3.6577568410       -4.6068285311        2.2092118989
 C         -3.4746624779       -3.2554402092        2.4888820286
 C         -2.5306775199       -2.5026347277        1.8172621028
 C         -1.7777288976       -3.1312474866        0.8388970096
 H          0.3148244390        2.6365478225       -2.3361066838
 H          0.1341288889        4.5671002912       -3.8502578165
 H         -1.7678053500        6.1045702580       -3.7210909714
 H         -3.5750459053        5.7389579574       -2.0725610329
 H         -5.1780475790        4.8034061643       -0.0590744472
 H         -6.1787211198        3.5271338268        1.8084564148
 H         -5.0394512729        1.5645311839        2.7305468376
 H         -2.8983702447        0.7895954519        1.8105737384
 H          0.9185680753        2.3611432790        0.0059647997
 H          2.9999202854       -1.4078501478       -1.6107202927
 H          5.1723351644       -2.1942150613       -2.4443873455
 H          7.2705421073       -1.2700146276       -1.5804064067
 H          7.2487932673        0.5064141594        0.1410903447
 H          6.5513428026        2.3801337844        1.9959675880
 H          5.3472186303        3.8992181940        3.5333542930
 H          2.9015752471        3.8579038184        3.6640391119
 H          1.5769964192        2.3412231068        2.2579673277
 H          1.7233620008       -1.8267988024        0.3949314413
 H          1.2335586091       -2.7120680255       -1.9608462370
 H          1.7898829579       -4.8143111671       -3.1160021454
 H          0.6124015412       -6.8957443153       -2.5861055669
 H         -1.1847145169       -6.9306919285       -0.8878878558
 H         -3.0135325028       -6.2987102123        1.0563788868
 H         -4.4083831605       -5.1608796435        2.7525083441
 H         -4.0805732020       -2.7848567600        3.2485330275
 H         -2.3860859905       -1.4608697327        2.0594716872
