  73
       -117.10400421
 N         -3.6448744382       -0.7935366329       -0.8292247704
 C         -2.5721726047       -0.5492181776       -0.5051092834
 C         -1.2312671603       -0.2564783186       -0.1756790767
 C         -0.7763899533        1.0746078732       -0.1662956513
 N         -1.6670433225        2.1262408093       -0.3702906401
 C         -1.5196544970        3.1298689327       -1.3139552211
 C         -0.5203564942        3.3163644475       -2.2563319871
 C         -0.6334224097        4.3982821312       -3.1096464076
 C         -1.7165622145        5.2699444587       -3.0381915018
 C         -2.7265930360        5.0734617387       -2.1172004315
 C         -2.6340311127        3.9946334539       -1.2485886388
 C         -3.4856954908        3.4912133542       -0.2059462312
 C         -4.6895523707        3.9242629399        0.3326756476
 C         -5.2401556822        3.2109857275        1.3786975266
 C         -4.5953307414        2.0931140144        1.9005802823
 C         -3.3953359825        1.6461302679        1.3815792536
 C         -2.8567763018        2.3367027801        0.3079698539
 C          0.5738596791        1.3391802086        0.0137541655
 C          1.4819854926        0.2985971342        0.1968852194
 N          2.8294943052        0.5839994076        0.4057967179
 C          3.9022278135       -0.0367906951       -0.2134085269
 C          3.9145593896       -1.0056839047       -1.2047259209
 C          5.1404487016       -1.4352590084       -1.6769840814
 C          6.3323135938       -0.9073451482       -1.1883592741
 C          6.3265671942        0.0806838229       -0.2237783496
 C          5.1061058943        0.5249521649        0.2662202629
 C          4.7376038665        1.5266657877        1.2283145802
 C          5.4728509615        2.3820738199        2.0374717890
 C          4.7955098658        3.2238289813        2.8969985565
 C          3.4052799465        3.2037205457        2.9681226225
 C          2.6528002709        2.3603502275        2.1720318559
 C          3.3262775438        1.5350577300        1.2839156390
 C          1.0320411014       -1.0202348416        0.2066330506
 C         -0.3143804935       -1.3040008199        0.0280591129
 N         -0.7574834581       -2.6258654396        0.0495030821
 C         -0.2555390640       -3.6573072519       -0.7250969936
 C          0.7270173235       -3.6291375566       -1.7014838839
 C          1.0241364527       -4.8104185755       -2.3545669610
 C          0.3518842347       -5.9923095294       -2.0555750915
 C         -0.6496408424       -6.0189461298       -1.1050343839
 C         -0.9627391953       -4.8444509070       -0.4345099150
 C         -1.9333893622       -4.5083943432        0.5707044965
 C         -2.8859672359       -5.2463919299        1.2599061136
 C         -3.6577568410       -4.6068285311        2.2092118989
 C         -3.4746624779       -3.2554402092        2.4888820286
 C         -2.5306775199       -2.5026347277        1.8172621028
 C         -1.7777288976       -3.1312474866        0.8388970096
 H          0.3148244390        2.6365478225       -2.3361066838
 H          0.1341288889        4.5671002912       -3.8502578165
 H         -1.7678053500        6.1045702580       -3.7210909714
 H         -3.5750459053        5.7389579574       -2.0725610329
 H         -5.1780475790        4.8034061643       -0.0590744472
 H         -6.1787211198        3.5271338268        1.8084564148
 H         -5.0394512729        1.5645311839        2.7305468376
 H         -2.8983702447        0.7895954519        1.8105737384
 H          0.9185680753        2.3611432790        0.0059647997
 H          2.9999202854       -1.4078501478       -1.6107202927
 H          5.1723351644       -2.1942150613       -2.4443873455
 H          7.2705421073       -1.2700146276       -1.5804064067
 H          7.2487932673        0.5064141594        0.1410903447
 H          6.5513428026        2.3801337844        1.9959675880
 H          5.3472186303        3.8992181940        3.5333542930
 H          2.9015752471        3.8579038184        3.6640391119
 H          1.5769964192        2.3412231068        2.2579673277
 H          1.7233620008       -1.8267988024        0.3949314413
 H          1.2335586091       -2.7120680255       -1.9608462370
 H          1.7898829579       -4.8143111671       -3.1160021454
 H          0.6124015412       -6.8957443153       -2.5861055669
 H         -1.1847145169       -6.9306919285       -0.8878878558
 H         -3.0135325028       -6.2987102123        1.0563788868
 H         -4.4083831605       -5.1608796435        2.7525083441
 H         -4.0805732020       -2.7848567600        3.2485330275
 H         -2.3860859905       -1.4608697327        2.0594716872
  73
       -117.10365436
 N         -3.5637668782       -0.7933502766       -1.0671022769
 C         -2.4680241016       -0.5315241354       -0.8512932340
 C         -1.1331912310       -0.2308176896       -0.5043975957
 C         -0.7363129167        1.0985634049       -0.2686556258
 N         -1.6238272699        2.1496775039       -0.4827794862
 C         -2.4063392255        2.3529597072       -1.6089835169
 C         -2.4014339862        1.6827905753       -2.8216546753
 C         -3.2786741355        2.1100039209       -3.7999873250
 C         -4.1285665689        3.1922305823       -3.5903358334
 C         -4.1057456913        3.8918469045       -2.4004037662
 C         -3.2348761197        3.4766567019       -1.4024660774
 C         -2.9376564483        3.9714763597       -0.0862322844
 C         -3.4344295351        5.0257107018        0.6678127567
 C         -2.9364385470        5.2212390832        1.9408522614
 C         -1.9704266162        4.3694107534        2.4686979892
 C         -1.4625332539        3.3118086584        1.7369644807
 C         -1.9378446090        3.1293752995        0.4475929452
 C          0.5327510482        1.3576449087        0.2324505900
 C          1.4041987229        0.3116075802        0.5237081001
 N          2.6618134948        0.5789583667        1.0645053333
 C          3.1979252458       -0.0321203789        2.1853358040
 C          2.6278966277       -0.9606945184        3.0419100820
 C          3.3747705688       -1.3901848205        4.1221639762
 C          4.6561880364       -0.8994694226        4.3580977143
 C          5.2165426426        0.0506320833        3.5273464747
 C          4.4839199436        0.4952767770        2.4349692784
 C          4.7340657147        1.4672811719        1.4065011036
 C          5.8161293725        2.2863973586        1.1145850837
 C          5.7424364231        3.1094426350        0.0084087973
 C          4.6149451185        3.1108002567       -0.8087685423
 C          3.5247851002        2.3051628041       -0.5371491176
 C          3.5836670129        1.4948125551        0.5865234066
 C          1.0259248806       -1.0034370971        0.2624582711
 C         -0.2270566554       -1.2810895808       -0.2650647456
 N         -0.5906441906       -2.5960850969       -0.5501127413
 C         -1.0931869797       -3.0583476273       -1.7564465100
 C         -1.2988445051       -2.3800266067       -2.9467816030
 C         -1.7892100299       -3.0952769454       -4.0224755624
 C         -2.0536511047       -4.4586335131       -3.9274890282
 C         -1.8149700789       -5.1474013771       -2.7551055149
 C         -1.3260999836       -4.4472950759       -1.6606946348
 C         -0.9491064348       -4.8376097006       -0.3300148205
 C         -0.9673632660       -6.0473405415        0.3505770532
 C         -0.5470187889       -6.0739059188        1.6657404766
 C         -0.1320612175       -4.9105440686        2.3077889479
 C         -0.1079198121       -3.6954244692        1.6498733635
 C         -0.4977409641       -3.6686924146        0.3206689270
 H         -1.7338159407        0.8561769406       -3.0095871555
 H         -3.3015185711        1.5941084593       -4.7480253312
 H         -4.8051120401        3.4920637804       -4.3764107628
 H         -4.7479248287        4.7451864689       -2.2441233388
 H         -4.1983694422        5.6725858298        0.2644135766
 H         -3.3067507982        6.0371478058        2.5431564024
 H         -1.6110094536        4.5339733425        3.4736254721
 H         -0.7298560288        2.6475611967        2.1701739356
 H          0.8361805628        2.3770860685        0.4115025516
 H          1.6252845029       -1.3263556159        2.8848168588
 H          2.9524111072       -2.1177231762        4.7991132415
 H          5.2115177425       -1.2630584029        5.2094627397
 H          6.2019813421        0.4457603607        3.7215794258
 H          6.6963146348        2.2715549380        1.7391839817
 H          6.5724549861        3.7550759560       -0.2361290388
 H          4.5926536044        3.7519641951       -1.6773427312
 H          2.6648988919        2.3019620851       -1.1899309102
 H          1.7221355202       -1.8092290363        0.4358633862
 H         -1.0776232192       -1.3282171117       -3.0436610687
 H         -1.9679399843       -2.5849182582       -4.9569597038
 H         -2.4408263552       -4.9823771176       -4.7885045110
 H         -1.9993816932       -6.2086360204       -2.6859255780
 H         -1.3096098313       -6.9450038999       -0.1412324745
 H         -0.5503639345       -7.0051605426        2.2119117471
 H          0.1727494344       -4.9558331836        3.3427421693
 H          0.1904186774       -2.7960480151        2.1655603810
  73
       -117.10338483
 N         -3.6408825273       -0.7547203160       -0.9994546683
 C         -2.5541995474       -0.5334716653       -0.7068407230
 C         -1.2172328750       -0.2576445794       -0.3468928083
 C         -0.7841293460        1.0712405270       -0.1916758824
 N         -1.6684877842        2.1294195714       -0.4044068418
 C         -2.3943053190        2.3720908545       -1.5589826675
 C         -2.3906164056        1.6866676403       -2.7632356042
 C         -3.1965319548        2.1670828168       -3.7778041387
 C         -3.9759003077        3.3084432017       -3.6087687647
 C         -3.9567280559        4.0129300561       -2.4216965286
 C         -3.1564484551        3.5481501691       -1.3868266920
 C         -2.8772734039        4.0311730972       -0.0622929629
 C         -3.3294279488        5.1159645264        0.6766092929
 C         -2.8601211887        5.2821549287        1.9648403887
 C         -1.9665430697        4.3734071450        2.5254296788
 C         -1.5054701541        3.2846809969        1.8099826838
 C         -1.9502150070        3.1307594709        0.5067449468
 C          0.5305173385        1.3335806825        0.1640645249
 C          1.4356493974        0.2904570977        0.3528600096
 N          2.7559209983        0.5653739954        0.7005279053
 C          3.8836865415        0.0036099533        0.1215761422
 C          3.9890884177       -0.8871038948       -0.9354875786
 C          5.2549405347       -1.2649687162       -1.3422827851
 C          6.3968434642       -0.7627805770       -0.7245309355
 C          6.3000210719        0.1488096534        0.3079465072
 C          5.0380178094        0.5408152110        0.7327881794
 C          4.5815836128        1.4659576471        1.7329564018
 C          5.2400531346        2.2696638511        2.6535553435
 C          4.4871836412        3.0444239342        3.5133658317
 C          3.0962444586        3.0063236165        3.4748855624
 C          2.4211167084        2.2116649469        2.5676177294
 C          3.1704222862        1.4564633600        1.6787497535
 C          1.0108243156       -1.0279035825        0.1963777285
 C         -0.3057267277       -1.3086121951       -0.1385294239
 N         -0.7314261198       -2.6331948709       -0.2389187532
 C         -0.1583200574       -3.6089409651       -1.0342753506
 C          0.8809722212       -3.5036512566       -1.9446030208
 C          1.2469919494       -4.6401814734       -2.6408889651
 C          0.5876293498       -5.8511300580       -2.4478381391
 C         -0.4674934395       -5.9536988437       -1.5624907139
 C         -0.8504092554       -4.8260234633       -0.8491760379
 C         -1.8826661872       -4.5677599514        0.1171299653
 C         -2.8502202612       -5.3639474133        0.7150859263
 C         -3.6846225809       -4.7948690316        1.6561501546
 C         -3.5516401747       -3.4566082562        2.0166414260
 C         -2.5952058342       -2.6451940752        1.4368505967
 C         -1.7776224945       -3.2043462509        0.4676403807
 H         -1.7821974921        0.8073310937       -2.9130549820
 H         -3.2203010504        1.6451347550       -4.7225941300
 H         -4.5947388845        3.6500344478       -4.4247527276
 H         -4.5473855476        4.9074245879       -2.2957280554
 H         -4.0380670325        5.8094628803        0.2502805012
 H         -3.1959280734        6.1224886524        2.5539977194
 H         -1.6295526187        4.5190323182        3.5411252741
 H         -0.8334070212        2.5699327002        2.2608305629
 H          0.8590613508        2.3576219425        0.2503804315
 H          3.1160676739       -1.2678982897       -1.4413320368
 H          5.3584621806       -1.9620660449       -2.1603720689
 H          7.3683968011       -1.0841008754       -1.0683609145
 H          7.1837675901        0.5555564984        0.7752905550
 H          6.3184590921        2.2804824035        2.6952408262
 H          4.9786594976        3.6798577996        4.2345471624
 H          2.5301549772        3.6067301159        4.1713416593
 H          1.3433966793        2.1764610746        2.5692161255
 H          1.6935421574       -1.8427204343        0.3811251110
 H          1.3814206447       -2.5626570114       -2.1174926488
 H          2.0582781225       -4.5859515279       -3.3515877944
 H          0.9024576595       -6.7177510788       -3.0095936726
 H         -0.9902716937       -6.8884179315       -1.4285554231
 H         -2.9405833727       -6.4062779064        0.4496424265
 H         -4.4467046522       -5.3951522504        2.1300225491
 H         -4.2062907234       -3.0430352848        2.7688835216
 H         -2.4935994204       -1.6132814742        1.7378712864
  73
       -117.10308696
 N         -3.6148314809       -0.8275757048       -0.9680996697
 C         -2.5126886048       -0.5673311271       -0.7869860358
 C         -1.1675700194       -0.2681817680       -0.4814121945
 C         -0.7569279559        1.0633785073       -0.2829747147
 N         -1.6319605320        2.1246511185       -0.4950509506
 C         -2.4374078667        2.3352962402       -1.6042468089
 C         -2.5142815793        1.6267466830       -2.7922764711
 C         -3.3979064636        2.0726231531       -3.7566949739
 C         -4.1747838638        3.2104391831       -3.5595921782
 C         -4.0687034711        3.9474483670       -2.3971452748
 C         -3.1904157929        3.5140248794       -1.4137589453
 C         -2.8184168333        4.0390079702       -0.1288193361
 C         -3.2189610355        5.1545158968        0.5938035972
 C         -2.6636655770        5.3704350650        1.8394115998
 C         -1.7398298647        4.4767518225        2.3734940439
 C         -1.3285250325        3.3580289480        1.6727945304
 C         -1.8549073214        3.1566918862        0.4059157359
 C          0.5250711217        1.3208465488        0.1863073943
 C          1.3848099859        0.2739790483        0.5024008363
 N          2.6421205993        0.5465556408        1.0440219037
 C          3.1267701543        0.0288987484        2.2320755855
 C          2.5170340256       -0.8311776428        3.1316817927
 C          3.2091449138       -1.1612563031        4.2812432791
 C          4.4753212002       -0.6421026949        4.5389846001
 C          5.0771167955        0.2345365711        3.6578740467
 C          4.4001153435        0.5802764671        2.4959397773
 C          4.6950367061        1.4687690117        1.4053623875
 C          5.7872142434        2.2668945909        1.0931102904
 C          5.7552162574        3.0033921403       -0.0744577330
 C          4.6589182566        2.9423045818       -0.9312008991
 C          3.5599670522        2.1553604355       -0.6418775713
 C          3.5793976996        1.4293916264        0.5392091877
 C          0.9962845493       -1.0429346870        0.2727504717
 C         -0.2617612728       -1.3209989812       -0.2435178722
 N         -0.6271217302       -2.6353900664       -0.5259435488
 C         -1.1432247358       -3.0881018283       -1.7313896711
 C         -1.3871021009       -2.3950812627       -2.9058213149
 C         -1.8804480849       -3.1022931018       -3.9854318011
 C         -2.1103478008       -4.4729997729       -3.9108460888
 C         -1.8295896352       -5.1766002890       -2.7567947513
 C         -1.3362036492       -4.4843103607       -1.6594143831
 C         -0.9109720038       -4.8918514225       -0.3487041494
 C         -0.8672656353       -6.1189244679        0.2986064195
 C         -0.3990250432       -6.1662682130        1.5968365059
 C          0.0010051344       -5.0066745332        2.2547755966
 C         -0.0374359530       -3.7741495474        1.6301874337
 C         -0.4745373351       -3.7249880730        0.3160656671
 H         -1.9050534281        0.7555168792       -2.9741300541
 H         -3.4832278703        1.5265682851       -4.6840694101
 H         -4.8594004520        3.5234199072       -4.3333708684
 H         -4.6520695059        4.8437323936       -2.2509152240
 H         -3.9518526233        5.8340476469        0.1865468102
 H         -2.9553362515        6.2356692573        2.4154992043
 H         -1.3363087658        4.6572303211        3.3587474602
 H         -0.6294386655        2.6635421280        2.1139249025
 H          0.8472160650        2.3407579301        0.3256671041
 H          1.5249147301       -1.2166438258        2.9531913249
 H          2.7547702827       -1.8298729531        4.9971754880
 H          4.9848101211       -0.9230002044        5.4484332624
 H          6.0500562907        0.6519633103        3.8679372744
 H          6.6429751515        2.3030929180        1.7499107349
 H          6.5939132436        3.6311418134       -0.3354599528
 H          4.6683702781        3.5196823643       -1.8436577949
 H          2.7217091947        2.1025297742       -1.3204629417
 H          1.6891638038       -1.8485455847        0.4594090545
 H         -1.1887077747       -1.3378802706       -2.9901403927
 H         -2.0870964934       -2.5795320510       -4.9071952491
 H         -2.5011110265       -4.9905264868       -4.7739603264
 H         -1.9837580746       -6.2435843101       -2.7045593600
 H         -1.1962181151       -7.0141872725       -0.2064795583
 H         -0.3507578996       -7.1114603974        2.1163060716
 H          0.3461364333       -5.0690593794        3.2760724016
 H          0.2541561091       -2.8811943505        2.1606637721
  73
       -117.10291089
 N         -3.5855692876       -0.6994660743       -1.2343016183
 C         -2.5204656435       -0.4963756143       -0.8604230119
 C         -1.2038519792       -0.2290701446       -0.4268503771
 C         -0.7785523107        1.0973535181       -0.2378306200
 N         -1.6730844832        2.1560444931       -0.4165398586
 C         -2.3679518182        2.4664956528       -1.5717364668
 C         -2.3013055308        1.8759585544       -2.8234222739
 C         -3.0846410604        2.4122935211       -3.8273927684
 C         -3.9046733962        3.5144780880       -3.5991509660
 C         -3.9545636094        4.1203885031       -2.3597032967
 C         -3.1773042057        3.5990845243       -1.3341802234
 C         -2.9653518850        3.9772102821        0.0361855785
 C         -3.4885792336        4.9742855017        0.8483054439
 C         -3.0758804474        5.0413724880        2.1646813719
 C         -2.1642609404        4.1232467372        2.6794537594
 C         -1.6305437382        3.1215164054        1.8909401163
 C         -2.0250843056        3.0649896830        0.5637027229
 C          0.5306197958        1.3630778830        0.1327992536
 C          1.4379153699        0.3206080243        0.3153708230
 N          2.7620324021        0.5865548176        0.6536008955
 C          3.8721078603       -0.0198089250        0.0844995794
 C          3.9501754880       -0.9076681048       -0.9771063386
 C          5.2014879304       -1.3424329194       -1.3708174311
 C          6.3573525716       -0.8951749501       -0.7371205149
 C          6.2898629147        0.0216828376        0.2931144509
 C          5.0419997458        0.4699003337        0.7044451385
 C          4.6145995133        1.4198238565        1.6941069404
 C          5.3005828969        2.2043461951        2.6107584130
 C          4.5757160063        3.0213428644        3.4552535902
 C          3.1850033464        3.0444805145        3.4037150781
 C          2.4818232559        2.2688852682        2.5006782943
 C          3.2041569757        1.4686720620        1.6286188085
 C          1.0104098308       -0.9978297607        0.1642574395
 C         -0.3001990067       -1.2822527792       -0.1919689333
 N         -0.7292979637       -2.6054290813       -0.2752260732
 C         -0.0994292028       -3.6246046080       -0.9686947777
 C          0.9951345767       -3.5706645962       -1.8165203385
 C          1.4174924882       -4.7478488813       -2.4050705509
 C          0.7579982745       -5.9514073048       -2.1721177280
 C         -0.3561792664       -6.0041825404       -1.3576569364
 C         -0.7945575235       -4.8344680762       -0.7523688546
 C         -1.8914235782       -4.5266465198        0.1237733557
 C         -2.8935440511       -5.2964927362        0.6983988346
 C         -3.7935282009       -4.6826435880        1.5461694406
 C         -3.6870313873       -3.3265094795        1.8415792861
 C         -2.6960494584       -2.5413172603        1.2835083785
 C         -1.8157778012       -3.1442580830        0.3990337325
 H         -1.6616384655        1.0270892021       -3.0137969462
 H         -3.0583038576        1.9671711057       -4.8106072378
 H         -4.5039786307        3.9019299731       -4.4093623594
 H         -4.5793255243        4.9835726524       -2.1870408108
 H         -4.2092549832        5.6757568698        0.4565549125
 H         -3.4718452483        5.8092180799        2.8121349746
 H         -1.8729209720        4.1908538565        3.7172101250
 H         -0.9419995953        2.3978295615        2.3023842455
 H          0.8501391195        2.3882423502        0.2356949363
 H          3.0666911408       -1.2398848694       -1.4982453884
 H          5.2822287128       -2.0394971653       -2.1914867022
 H          7.3171970755       -1.2604631685       -1.0698011215
 H          7.1861793767        0.3909423193        0.7675723857
 H          6.3781681121        2.1693953201        2.6596145854
 H          5.0890285999        3.6440665612        4.1722524739
 H          2.6405966749        3.6801921057        4.0859156418
 H          1.4035881201        2.2872184425        2.4927605108
 H          1.6891141930       -1.8106857553        0.3710424528
 H          1.4972932612       -2.6389395597       -2.0264832224
 H          2.2741447776       -4.7312341741       -3.0623727261
 H          1.1190474611       -6.8513529564       -2.6468279856
 H         -0.8808424851       -6.9330699623       -1.1941268794
 H         -2.9602085528       -6.3525566770        0.4855818069
 H         -4.5856871597       -5.2605599929        1.9978509347
 H         -4.3916939212       -2.8759636791        2.5240786651
 H         -2.6187619502       -1.4956426242        1.5403492979
  73
       -117.10287679
 N         -3.6272813840       -0.8091423062       -0.9582223645
 C         -2.5429465772       -0.5695319563       -0.6716554347
 C         -1.2075477676       -0.2744988959       -0.3204143975
 C         -0.7527648142        1.0566433122       -0.3136360121
 N         -1.6189525329        2.0993076731       -0.6402181142
 C         -1.3947772414        3.0553457758       -1.6155189082
 C         -0.3300373216        3.1856615219       -2.4932735444
 C         -0.3695418481        4.2270064902       -3.4017326400
 C         -1.4432292410        5.1123813886       -3.4452225847
 C         -2.5151154980        4.9732846805       -2.5855966239
 C         -2.4972636263        3.9367170737       -1.6624542467
 C         -3.4183831456        3.4973739678       -0.6501686088
 C         -4.6428455981        3.9748599890       -0.2029651043
 C         -5.2620808968        3.3244787804        0.8457184481
 C         -4.6675021772        2.2249607205        1.4588737537
 C         -3.4494626893        1.7318386600        1.0315084708
 C         -2.8412842669        2.3609869178       -0.0431665619
 C          0.5665970995        1.3344390942        0.0123510656
 C          1.4384922779        0.3080287940        0.3682033318
 N          2.7565303155        0.6000014811        0.7093835745
 C          3.8822291067       -0.0540767815        0.2345540921
 C          3.9860515401       -1.0788238158       -0.6940830480
 C          5.2520783572       -1.5284023274       -1.0203880721
 C          6.3923143045       -0.9698766977       -0.4491713704
 C          6.2960501811        0.0706617189        0.4534871426
 C          5.0347960570        0.5382620201        0.7965567746
 C          4.5772218036        1.5940042419        1.6576597979
 C          5.2311102462        2.4986037598        2.4830062754
 C          4.4743097696        3.3904042897        3.2168681402
 C          3.0837726502        3.3729683347        3.1490732988
 C          2.4112191741        2.4810496071        2.3346902627
 C          3.1674499872        1.6038642115        1.5718526333
 C          0.9868996138       -1.0098241466        0.3820413638
 C         -0.3196846161       -1.3094390441        0.0254041451
 N         -0.7502911621       -2.6360353951        0.0229968204
 C         -1.3390067249       -3.3011341059       -1.0397287270
 C         -1.5533510814       -2.8690690946       -2.3388942394
 C         -2.1314673581       -3.7587984063       -3.2241390490
 C         -2.4757597290       -5.0506600123       -2.8353551057
 C         -2.2330741693       -5.4953026559       -1.5510808134
 C         -1.6533375621       -4.6191031066       -0.6435755391
 C         -1.2362090478       -4.7483653473        0.7259340672
 C         -1.2972987690       -5.7823964403        1.6501430973
 C         -0.8044152485       -5.5636362589        2.9216160137
 C         -0.2669614467       -4.3302786227        3.2801555594
 C         -0.1968923177       -3.2847763515        2.3782144593
 C         -0.6734572792       -3.5069507721        1.0957815899
 H          0.5005150655        2.4952610343       -2.4785896629
 H          0.4493420886        4.3535410492       -4.0941721012
 H         -1.4367185709        5.9135385262       -4.1690194597
 H         -3.3538920927        5.6510808564       -2.6294094560
 H         -5.0937811676        4.8396158847       -0.6654450420
 H         -6.2169641542        3.6765506106        1.2062418956
 H         -5.1661743826        1.7474249615        2.2887101406
 H         -2.9935588458        0.8874627811        1.5266303633
 H          0.9131882281        2.3557146320       -0.0098069264
 H          3.1135326530       -1.5078168292       -1.1632062029
 H          5.3573487310       -2.3283932849       -1.7379912826
 H          7.3631851847       -1.3510367958       -0.7278208332
 H          7.1795760624        0.5183187445        0.8822304169
 H          6.3083331478        2.4966389224        2.5500952074
 H          4.9623829431        4.1046088072        3.8626076336
 H          2.5159427961        4.0684722445        3.7487013173
 H          1.3320479807        2.4658671954        2.3109942424
 H          1.6530056987       -1.8078773113        0.6703317394
 H         -1.2790418038       -1.8745830038       -2.6579543178
 H         -2.3175349003       -3.4441997377       -4.2399315701
 H         -2.9297439650       -5.7144877491       -3.5557089590
 H         -2.4814641354       -6.5031084802       -1.2549943253
 H         -1.7269217977       -6.7341227789        1.3771125570
 H         -0.8415144807       -6.3554252706        3.6547127697
 H          0.1003327999       -4.1848683686        4.2852165680
 H          0.2078494637       -2.3270667915        2.6709717117
  73
       -117.10024682
 N         -3.6291631406       -0.6173669013       -0.9538503221
 C         -2.5187604638       -0.4667413354       -0.7120364668
 C         -1.1672911089       -0.2347955008       -0.3742242132
 C         -0.7045986416        1.0879888473       -0.3090611938
 N         -1.5744696818        2.1412162683       -0.6480194781
 C         -1.7627512063        2.6607540858       -1.9101904356
 C         -1.1245738807        2.3300660824       -3.0947371176
 C         -1.4962381674        3.0181768475       -4.2339429709
 C         -2.4746132791        4.0091531759       -4.1952049540
 C         -3.1116462404        4.3395760967       -3.0153363022
 C         -2.7584563892        3.6621299587       -1.8557830840
 C         -3.1942171078        3.7305979588       -0.4884008726
 C         -4.1338028029        4.4979320039        0.1875266256
 C         -4.3050096495        4.2926424469        1.5423028601
 C         -3.5573381504        3.3376389159        2.2277480358
 C         -2.6151655174        2.5619865824        1.5799269891
 C         -2.4419976114        2.7676163723        0.2207349222
 C          0.5892177296        1.3597815273        0.0916026647
 C          1.4430739726        0.3162120287        0.4556296375
 N          2.7401711959        0.5918145127        0.8744424922
 C          3.8899866012       -0.0572892079        0.4510872711
 C          4.0465986691       -1.0543341722       -0.4999184297
 C          5.3282470295       -1.5028141460       -0.7606530262
 C          6.4334913582       -0.9695294972       -0.1034799935
 C          6.2864155234        0.0452731650        0.8212849658
 C          5.0087060619        0.5113575290        1.0989495645
 C          4.5051579987        1.5477666119        1.9583740805
 C          5.1132398874        2.4255528931        2.8453365156
 C          4.3187900344        3.3047359686        3.5542464986
 C          2.9351461476        3.3006221432        3.4008704116
 C          2.3078318757        2.4344930563        2.5245597557
 C          3.1036754195        1.5709214613        1.7869202696
 C          0.9921811842       -0.9992692481        0.3861842596
 C         -0.2980696824       -1.2880727383       -0.0396606013
 N         -0.7280039017       -2.6090866894       -0.1186432104
 C         -1.3225889925       -3.2035503056       -1.2212380011
 C         -1.5612001826       -2.6820720170       -2.4827560353
 C         -2.1374770807       -3.5143578122       -3.4237497568
 C         -2.4556047717       -4.8366440924       -3.1267481000
 C         -2.1896045986       -5.3691017544       -1.8809377802
 C         -1.6129403068       -4.5513173977       -0.9188429540
 C         -1.1803745503       -4.7733953896        0.4341326845
 C         -1.2227386114       -5.8726540269        1.2806957881
 C         -0.7278123758       -5.7396553849        2.5631996621
 C         -0.2091967463       -4.5270408960        3.0088171736
 C         -0.1569193303       -3.4183391112        2.1842377028
 C         -0.6315744364       -3.5545189382        0.8891448596
 H         -0.3634522520        1.5632518599       -3.1248246352
 H         -1.0182504242        2.7833896979       -5.1735331753
 H         -2.7365668863        4.5245766996       -5.1071733138
 H         -3.8702364525        5.1071095794       -2.9905191152
 H         -4.7179517797        5.2367934183       -0.3397697340
 H         -5.0324945247        4.8781169758        2.0844568265
 H         -3.7189404204        3.1994075158        3.2865728243
 H         -2.0391224754        1.8175484920        2.1110853482
 H          0.9379903152        2.3805175983        0.1033671803
 H          3.2039114462       -1.4624666231       -1.0370048202
 H          5.4734196232       -2.2825966956       -1.4932439556
 H          7.4176519042       -1.3503290027       -0.3310502695
 H          7.1437997348        0.4749099856        1.3163385889
 H          6.1842369142        2.4129456900        2.9780835622
 H          4.7712268141        3.9989366977        4.2462057091
 H          2.3360996201        3.9867513238        3.9806549778
 H          1.2321377827        2.4309174231        2.4346186682
 H          1.6476295188       -1.8087962571        0.6671258767
 H         -1.3073450276       -1.6633498685       -2.7349330888
 H         -2.3421080433       -3.1288844607       -4.4110582122
 H         -2.9080016207       -5.4539869720       -3.8881523655
 H         -2.4182117222       -6.3997088840       -1.6561006551
 H         -1.6407111557       -6.8078345346        0.9408437461
 H         -0.7506330787       -6.5828451849        3.2370816572
 H          0.1563714572       -4.4477123215        4.0217968869
 H          0.2298072863       -2.4779443849        2.5481170980
