90
 energy: -142.334052774411 gnorm: 0.000058660375 xtb: 6.7.1 (edcfbbe)
O            8.16452182696433        2.91635862576341        0.58268912820748
C            7.83678152759871        1.73175710641306        0.38097918522062
C            8.73115824097128        0.57831011097659        0.19414857859496
C           10.11643070586776        0.52403362796304        0.19393087148397
C           10.73054378636167       -0.70295278698572       -0.01210776564754
C            9.98390938747964       -1.85755517586386       -0.21436320802776
C            8.59499688952257       -1.81799183575738       -0.21481143443404
C            7.97699034155052       -0.59927189810800       -0.00991661744754
C            6.57822517100004       -0.23941391374673        0.04290215267660
N            5.51864879693872       -0.95964283550611       -0.07908772490217
C            4.30245060931114       -0.37035047077527        0.01183691842996
C            3.13368852318451       -1.11698000461064       -0.09714838684207
C            1.88287662209730       -0.52923837362756       -0.00597032002902
C            0.68041312927870       -1.36893697064387       -0.04309409813532
C            0.53794293473978       -2.37729949458057       -0.99716003837023
C           -0.59847849221147       -3.15599438088253       -1.04468083766901
C           -1.62789885486853       -2.96248628819758       -0.12010250361035
N           -2.79175066549188       -3.72955032727909       -0.17490551271969
C           -4.02527472341361       -3.14895708298028        0.14305692261603
C           -4.29579113380920       -1.82673900048391       -0.21422893165138
C           -5.51185816104405       -1.25505971690517        0.10502889323109
C           -6.47800040086621       -1.98902988078495        0.77549081086356
C           -6.21674148617376       -3.30407051917610        1.12730528826187
C           -5.00077444338764       -3.88330794520748        0.81902456148615
C           -2.72869958017889       -5.07567391980567       -0.55472047883840
C           -1.66376767870636       -5.87664050735841       -0.13974781363051
C           -1.60394213718425       -7.20350838907396       -0.51946143672978
C           -2.60115409824570       -7.75278323965203       -1.31023198226911
C           -3.66258209948365       -6.96199249683673       -1.72197960121562
C           -3.72941946147106       -5.63270043009877       -1.35213114461084
C           -1.47143409606794       -1.98131365847157        0.86282661844489
C           -0.34026368620769       -1.19750566385349        0.89472628306091
C            1.79097616048904        0.87638391631113        0.17023254485240
C            0.48356851277650        1.55277608339808        0.15205737815422
C           -0.41537301238031        1.32762369327614       -0.89042777316181
C           -1.63578634716454        1.96630853388660       -0.92249080162161
C           -2.00221271745497        2.84317096174958        0.10144464143981
N           -3.24892643983528        3.47023851372042        0.09116209918534
C           -3.81596047055858        3.90255868115097       -1.11210890136657
C           -5.19621602929755        3.83056596881062       -1.30806129947562
C           -5.75320752173767        4.26144491354263       -2.49649114557263
C           -4.94899741585618        4.76456006348005       -3.50712172051919
C           -3.57774540770346        4.83800485010403       -3.31785606611512
C           -3.01104346709842        4.41516360951846       -2.13110847026133
C           -3.93268990676525        3.66798226391670        1.29850076635748
C           -3.91884027798295        2.67829623101503        2.28212819074260
C           -4.59152963559765        2.87421461223405        3.47273333072635
C           -5.28805547845683        4.05106699889665        3.69920183919043
C           -5.30779868169707        5.03502985947450        2.72303483678757
C           -4.63542418119803        4.85060191208581        1.53016147044021
C           -1.09843257939226        3.08160023284755        1.13970645085525
C            0.12927839923942        2.45406795231794        1.15435765794285
C            2.93508012116239        1.63107582402617        0.30377569485392
C            4.21402348608870        1.05149778403575        0.24003205757774
N            5.31958772973424        1.77700212740013        0.36657044454021
C            6.50109681050678        1.19489940439730        0.28022041537260
H           10.69216178860956        1.42407806525410        0.35079063811786
H           11.80915023361366       -0.76070359169967       -0.01585120523024
H           10.48952739893721       -2.79811227776001       -0.37306716154867
H            8.00712158435207       -2.70959007639233       -0.37061679865230
H            3.22802785476852       -2.18462624638810       -0.22738882153827
H            1.31423843050253       -2.52438092120101       -1.73348696812913
H           -0.70486733556067       -3.91034867710730       -1.81019533152717
H           -3.54976014575975       -1.25924354282269       -0.74994474166333
H           -5.71017949021920       -0.23286730175694       -0.18135559315058
H           -7.42815085114018       -1.53972848642595        1.02158692088116
H           -6.96214616133755       -3.88166284217393        1.65390501827155
H           -4.79539981050208       -4.90407797997789        1.10599609466474
H           -0.89249159884310       -5.45307752791625        0.48671704557265
H           -0.77756272487889       -7.81521135002924       -0.18855619929487
H           -2.55144683089863       -8.79048776967476       -1.60342658369937
H           -4.44023462699659       -7.38138938341140       -2.34321735750984
H           -4.55053410924641       -5.01441761134455       -1.68386603717857
H           -2.24312842296590       -1.84810367983658        1.60624839124203
H           -0.22810584513330       -0.45779039144025        1.67247883581284
H           -0.14601403716924        0.64994572751627       -1.68644571485717
H           -2.32160683045525        1.78206210819153       -1.73594807175690
H           -5.82453205054329        3.43155725093319       -0.52548834132561
H           -6.82216425655682        4.19727814473904       -2.63752986603571
H           -5.38753903436772        5.09854611177940       -4.43523801785159
H           -2.94454044219383        5.23699858613565       -4.09670071921388
H           -1.94372035928054        4.48726348702210       -1.98140681021624
H           -3.38415787237442        1.75747652814470        2.10128306900943
H           -4.57792854554916        2.09990064169838        4.22555528711925
H           -5.81259907859989        4.20069710232445        4.63077193816465
H           -5.84342280677783        5.95704688702121        2.89482489862730
H           -4.64196244784024        5.62236899838928        0.77449803647787
H           -1.36332839154677        3.77015759058608        1.92844723459679
H            0.82058003725025        2.64828911761719        1.96146435992648
H            2.87716874349690        2.70172797808448        0.42984839688702
