90
 energy: -142.374820011950 gnorm: 0.000049400678 xtb: 6.7.1 (edcfbbe)
O            8.15645416364391        2.94096577658068        0.36575155281120
C            7.83590131209156        1.77580430233235        0.25309805740501
C            8.73169540034130        0.59934921469100        0.14653496442262
C           10.11351115915626        0.55540066443091        0.15425464476002
C           10.73485331702054       -0.68395427777881        0.04694213016183
C            9.98734674290606       -1.84703899768167       -0.06468223465975
C            8.59630747027287       -1.81202444165586       -0.07488737560557
C            7.97462827918856       -0.58356532216173        0.03048768446060
C            6.56220935215137       -0.22354089023069        0.05236720171496
N            5.52091088785972       -1.00392630149868       -0.03575455956381
C            4.31775202397801       -0.37362038387253        0.01667923081097
C            3.14183388348289       -1.13059231848057       -0.05832060855573
C            1.89992097413716       -0.53416495740321        0.00067636334388
C            0.69392783628134       -1.37041295390060       -0.01106530886583
C            0.54624494267819       -2.39801880162570       -0.94219251579456
C           -0.59334667121291       -3.17276485381673       -0.97066392423375
C           -1.61863181884187       -2.96080735560560       -0.04525350950800
N           -2.78239344575499       -3.72413888700211       -0.07859273619702
C           -4.01205516839347       -3.14676187022432        0.27129430720626
C           -4.30658344358968       -1.83326142507545       -0.09435481448813
C           -5.51793367034948       -1.26828341125631        0.25513731001859
C           -6.45649469571060       -2.00262709342760        0.96237472697000
C           -6.17205465096734       -3.31054172984519        1.32076591831015
C           -4.95921285615577       -3.88121284832167        0.98387023122923
C           -2.73725139632233       -5.06940937627656       -0.47329489699698
C           -1.68230103860519       -5.88859714573461       -0.07217991594354
C           -1.64257586174631       -7.21310627413355       -0.46402415823516
C           -2.65270325774954       -7.74259606671786       -1.25107435173990
C           -3.70602022263838       -6.93395343776783       -1.64700822740930
C           -3.75048590779365       -5.60622190741287       -1.26673628756360
C           -1.45252576725166       -1.96042889543511        0.91700584709332
C           -0.32227157711015       -1.17485138452674        0.92541856633919
C            1.80331719996656        0.88300250202567        0.11018701691409
C            0.49431699254463        1.55517844120736        0.07895239871393
C           -0.41830355560036        1.28909642720462       -0.94077573822608
C           -1.64074976670246        1.92426795128341       -0.97920312983656
C           -1.99630649900589        2.83788736674350        0.01520277064897
N           -3.24573317214030        3.46051175507874        0.00024023819468
C           -3.82726232107616        3.85561709215924       -1.21044410524476
C           -5.20760180889572        3.77086433106577       -1.39360660590674
C           -5.77799085403991        4.16963835777322       -2.58723774976218
C           -4.98643537347753        4.65037371422669       -3.61789468993279
C           -3.61439318849724        4.73393093510907       -3.44250687402954
C           -3.03563025003189        4.34589408910969       -2.24945753532218
C           -3.91595256350018        3.69467856012691        1.21003274461220
C           -3.89176073321242        2.73589155279610        2.22264066677206
C           -4.54946613200016        2.96747961246381        3.41548096752318
C           -5.24409087783533        4.14977428316359        3.61544486467329
C           -5.27508854396363        5.10310804612582        2.61026979966520
C           -4.61483741526046        4.88335033971286        1.41626871153701
C           -1.07825008178910        3.11624410172010        1.02962954487759
C            0.15123275755770        2.49199118593268        1.05143995649667
C            2.94890231194096        1.63928473525902        0.20349488342625
C            4.21994012205129        1.04459266902451        0.16341395896036
N            5.32193857994516        1.82902917924313        0.24850750746428
C            6.46302617365508        1.19881257271056        0.19083471779621
H           10.68467255914046        1.46728053557230        0.24296984747043
H           11.81284457284923       -0.73962670721183        0.05128345606591
H           10.49319655549067       -2.79753171486225       -0.14577669768478
H            8.01096168495783       -2.71383451700506       -0.16198583344922
H            3.23553511634220       -2.20341396252614       -0.13328226712859
H            1.31916927674436       -2.56173599738405       -1.67886892924604
H           -0.70339866688329       -3.94265268648250       -1.71999115067743
H           -3.58131165734882       -1.26322989938118       -0.65592268325422
H           -5.73368484118047       -0.25077903671757       -0.03635719867711
H           -7.40319456927762       -1.55892639202356        1.23166194464211
H           -6.89651986275070       -3.88964739740894        1.87468154755381
H           -4.73689786116625       -4.89838396415024        1.27194829838088
H           -0.89918892429397       -5.48024940658324        0.55004098290489
H           -0.82140332390345       -7.83829052844865       -0.14483737809628
H           -2.61981489271440       -8.77867470005468       -1.55289855645482
H           -4.49572181870895       -7.33751142957659       -2.26393812372921
H           -4.56835212318861       -4.97516016029871       -1.58284108618118
H           -2.22028154332706       -1.80824632003158        1.66083869948331
H           -0.20764500016144       -0.41760202289778        1.68594334200849
H           -0.15996821854809        0.58242351155148       -1.71536776315060
H           -2.33615006927473        1.71026051864127       -1.77739533515762
H           -5.82770722525864        3.39196586055587       -0.59427081412126
H           -6.84834237824227        4.09746105173931       -2.71570087579865
H           -5.43517784642246        4.95893325795642       -4.55015738203631
H           -2.98938663738641        5.11460751671110       -4.23740065927654
H           -1.96678217056837        4.42405562245648       -2.11244324753860
H           -3.35693560404407        1.81061555298072        2.06469101843918
H           -4.52569457370158        2.21569937002882        4.19100312290539
H           -5.75836612753822        4.32693034860714        4.54812939759599
H           -5.80997387680129        6.02981868419890        2.75953248891812
H           -4.63318977900605        5.63142926478494        0.63707875355681
H           -1.33607034825487        3.83005409011703        1.79819767966354
H            0.85122136766825        2.71733702165498        1.84309658878944
H            2.89831968529879        2.71485091910447        0.28209205450675
