  90
       -142.27241477
 O          8.2944690510        3.0417542720        0.1771745603
 C          7.9958256000        1.8452208433        0.1187627284
 C          8.9024271422        0.6831137556        0.0558225725
 C         10.2867681903        0.6446580873        0.0453982005
 C         10.9119962523       -0.5928274302       -0.0177516822
 C         10.1768435435       -1.7701066555       -0.0692433689
 C          8.7877655192       -1.7453835574       -0.0601309617
 C          8.1598339229       -0.5165374207        0.0016239120
 C          6.7567521126       -0.1727797466        0.0245204287
 N          5.7005505430       -0.9007278041       -0.0090932222
 C          4.4768840890       -0.3304506150        0.0242734180
 C          3.3179470502       -1.0974348678        0.0048946125
 C          2.0638059529       -0.5129653693        0.0483987461
 C          0.8472216663       -1.3304994238        0.0960197950
 C          0.6370605842       -2.3811919728       -0.7948186349
 C         -0.5638338650       -3.0609631894       -0.8194669547
 C         -1.5875151783       -2.7094061275        0.0599568504
 N         -2.8527243974       -3.2992059886       -0.0115822686
 C         -3.9688570579       -2.4659274886        0.1381236088
 C         -3.9568852159       -1.1861537592       -0.4181635219
 C         -5.0430821371       -0.3491236683       -0.2628569859
 C         -6.1540165747       -0.7691637848        0.4505182753
 C         -6.1730377682       -2.0405173464        1.0006968100
 C         -5.0919497864       -2.8877876200        0.8478281613
 C         -2.9983297928       -4.6623571658       -0.2660075069
 C         -2.0482027411       -5.5711417038        0.2024210218
 C         -2.1897845168       -6.9202871899       -0.0555888868
 C         -3.2785686338       -7.3877748821       -0.7737886197
 C         -4.2267286183       -6.4902810250       -1.2377817349
 C         -4.0907086270       -5.1381206769       -0.9928058609
 C         -1.3487665846       -1.7159689422        1.0114673057
 C         -0.1520569084       -1.0397744651        1.0272519813
 C          1.9571424915        0.9017740304        0.0730186022
 C          0.6220221574        1.5241211576        0.0106341996
 C         -0.2401422264        1.2188092013       -1.0409451911
 C         -1.5201523002        1.7279776327       -1.0770687828
 C         -1.9804689984        2.5397901753       -0.0409236867
 N         -3.3043064319        2.9982094966       -0.0177925409
 C         -3.9059818378        3.4773039925       -1.1801535124
 C         -5.2790300681        3.3354682848       -1.3922458010
 C         -5.8582883179        3.8098363530       -2.5527785489
 C         -5.0868014226        4.4275395645       -3.5234052619
 C         -3.7241106131        4.5728058043       -3.3188361198
 C         -3.1356488198        4.1077569729       -2.1596496912
 C         -4.0192171627        2.8935709767        1.1816001906
 C         -3.8361150094        1.7807097940        2.0027184902
 C         -4.5485573734        1.6619270033        3.1794009695
 C         -5.4494546182        2.6449861114        3.5557821482
 C         -5.6272266790        3.7565015579        2.7479669160
 C         -4.9175129596        3.8865089559        1.5698106804
 C         -1.1090894475        2.8772645089        0.9941324813
 C          0.1811396070        2.3882594926        1.0083562086
 C          3.0874648414        1.6829360432        0.1122171843
 C          4.3729306468        1.1126628509        0.0969715512
 N          5.4743444106        1.8413199590        0.1299487401
 C          6.6620119980        1.2798399269        0.0975010232
 H         10.8554102517        1.5606273778        0.0868027590
 H         11.9908807741       -0.6413499644       -0.0257065331
 H         10.6911499648       -2.7181573831       -0.1167170518
 H          8.2084045818       -2.6549507407       -0.1004703315
 H          3.4188401978       -2.1721003054       -0.0155546324
 H          1.4070331574       -2.6333119961       -1.5093251124
 H         -0.7301610844       -3.8456654382       -1.5428337476
 H         -3.0898904513       -0.8575409392       -0.9717316628
 H         -5.0243298788        0.6316912920       -0.7120474944
 H         -6.9991430486       -0.1097763552        0.5770092944
 H         -7.0342977536       -2.3742215367        1.5599758104
 H         -5.1048643401       -3.8761396405        1.2835544768
 H         -1.2062552060       -5.2105736344        0.7750584894
 H         -1.4485956729       -7.6125072960        0.3150731002
 H         -3.3869425317       -8.4430848791       -0.9710743483
 H         -5.0754227927       -6.8444916570       -1.8038485580
 H         -4.8234328911       -4.4395351587       -1.3692591613
 H         -2.1198534749       -1.4772385918        1.7291960109
 H          0.0204652436       -0.2805506022        1.7739269242
 H          0.0995157095        0.5665027598       -1.8316472313
 H         -2.1817359354        1.4844364496       -1.8953876361
 H         -5.8895096784        2.8514699916       -0.6440885890
 H         -6.9209653299        3.6882964660       -2.7023589559
 H         -5.5435143328        4.7942557749       -4.4295566791
 H         -3.1139885208        5.0601855558       -4.0646816116
 H         -2.0753095858        4.2360159789       -1.9994910293
 H         -3.1424070128        1.0102204698        1.7013500359
 H         -4.4062500351        0.7908489555        3.8017717023
 H         -6.0073252125        2.5472652116        4.4743512005
 H         -6.3186912512        4.5325901929        3.0404502306
 H         -5.0502598263        4.7575414904        0.9448599105
 H         -1.4570478952        3.5205720577        1.7889636433
 H          0.8475557173        2.6505460978        1.8171659722
 H          3.0125053479        2.7593394875        0.1261929508
