  78
       -126.66657645
 N         -6.8722906009       -3.0606826731       -0.2808347411
 C         -5.5749875338       -2.7354620834        0.0490391746
 C         -4.5352504061       -3.6523298825       -0.1536959208
 C         -3.2355845000       -3.2915102448        0.1015644361
 C         -2.8705584819       -2.0170060799        0.5592229453
 C         -3.9344907242       -1.1173020167        0.7756313957
 C         -5.2574310740       -1.4746552523        0.5294318534
 O         -3.7890009996        0.1546793352        1.2367195063
 C         -2.5785296244        0.6558298340        1.5770270362
 C         -2.5421549849        1.9671345260        2.0254588032
 C         -1.3261439045        2.5393383061        2.4004024336
 N         -1.2883422141        3.8262727141        2.8848395724
 C         -0.1570864680        1.7824620133        2.3366841745
 C         -0.2089574261        0.4800354829        1.8699196105
 C         -1.4129078941       -0.1134732273        1.4623317500
 B         -1.4443137767       -1.5087311951        0.8543916992
 C         -0.0331201588       -2.0998524651        0.6125318486
 C          0.2967479933       -3.2439854738       -0.1279160956
 C          1.5936049340       -3.6093831670       -0.4080476899
 C          2.6611637992       -2.8519899361        0.0892865468
 N          3.9551127179       -3.1202524258       -0.3324027578
 C          5.0317862274       -2.2448299203       -0.3109263941
 C          6.3026354795       -2.7196797124       -0.0828822763
 C          7.3895812648       -1.8400801052        0.0454935099
 C          7.2041846958       -0.4883864803        0.0149820591
 C          5.9218922776        0.0512174529       -0.2443681363
 C          5.6631412368        1.4217831940       -0.2295836161
 C          4.3829841824        1.9314127333       -0.4290300863
 C          4.0820113147        3.2996531423       -0.2225411141
 C          2.7988412441        3.7557552242       -0.3151535299
 C          1.7306313988        2.8975431284       -0.6655789734
 C          0.3970040479        3.3598916599       -0.6628094937
 C         -0.6777459605        2.5345460131       -0.9881564491
 C         -2.0104100003        2.9638989919       -0.9380790028
 C         -3.0835986006        2.1207235293       -1.2997238739
 C         -4.4145888699        2.5455208569       -1.2525636449
 C         -5.4490906611        1.6961949237       -1.6222800214
 C         -5.1750785673        0.4082221415       -2.0477766802
 C         -3.8621199833       -0.0436304679       -2.0974997517
 C         -2.8030917823        0.7884692787       -1.7275662006
 C         -1.4603962623        0.3491590877       -1.7532186011
 C         -0.4009449692        1.1849255993       -1.3909653241
 C          0.9228317146        0.7350319411       -1.3936482151
 C          1.9986393659        1.5470982786       -1.0031528901
 C          3.3350303132        1.0443134102       -0.8464521224
 C          3.6321764000       -0.3062726451       -0.9670651921
 C          4.8423298321       -0.8410626068       -0.5267808892
 C          2.3738749226       -1.7961011984        0.9448217082
 C          1.0601691194       -1.3765980898        1.1311175057
 O          0.9599070587       -0.2011490470        1.8109965012
 H         -7.0913075471       -4.0420530409       -0.3336855781
 H         -7.5941988805       -2.4861811782        0.1224884785
 H         -4.7698549716       -4.6456428153       -0.5100597674
 H         -2.4615849020       -4.0290227800       -0.0422890549
 H         -6.0304911241       -0.7434335334        0.7115549400
 H         -3.4575160485        2.5353371950        2.0798138602
 H         -0.3904876301        4.2810764166        2.8747006470
 H         -2.0712182436        4.4159186173        2.6559773681
 H          0.7916089572        2.2081595936        2.6239023090
 H         -0.5010526488       -3.8358593864       -0.5482450177
 H          1.7967956109       -4.4610408301       -1.0425147122
 H          4.1720081377       -4.0859786000       -0.5319809177
 H          6.4638668215       -3.7816937040        0.0416336385
 H          8.3717636214       -2.2523286832        0.2253458042
 H          8.0273517021        0.1878000920        0.1919075612
 H          6.4719523503        2.1046349216       -0.0078179013
 H          4.8844181258        3.9684843128        0.0548334023
 H          2.5747244702        4.7935107636       -0.1087438261
 H          0.2068710295        4.3873358412       -0.3831104543
 H         -2.2254920016        3.9772894167       -0.6286447860
 H         -4.6337626878        3.5511140310       -0.9214496152
 H         -6.4704753654        2.0458621984       -1.5761180131
 H         -5.9786343766       -0.2535648044       -2.3347264376
 H         -3.6506329375       -1.0537331381       -2.4172051847
 H         -1.2517902163       -0.6653155439       -2.0615381788
 H          1.0905647672       -0.2871370702       -1.6947470858
 H          2.8926492976       -0.9780578866       -1.3649148119
 H          3.1607653516       -1.2209880922        1.4047362258
