  70
  -106.164913200500       0.169693399616948      !
 C          9.7368302369        0.4316071180       -0.9869458767
 C          8.9885348232        1.2191469784       -1.8746437315
 C          7.6254838080        1.2597092437       -1.7823615592
 C          6.9470101515        0.5104612763       -0.7957609378
 C          5.5478571743        0.5308000926       -0.6788556838
 C          4.8869753861       -0.2213283737        0.2762349124
 C          3.4339001629       -0.2035287209        0.3631803976
 C          2.7467244829        1.0450259328        0.4697211486
 C          3.4381059458        2.2479630295        0.6437425717
 C          2.7778470744        3.4728106664        0.6507445842
 C          1.4116985492        3.5140378591        0.4672301265
 C          0.6928560720        2.3280141922        0.3506154513
 C          1.3211860395        1.0805904028        0.4174217216
 C          0.5844886512       -0.1440312454        0.3895817726
 C         -0.8661420545       -0.1224269577        0.3133206625
 C         -1.5348094221       -0.8360528694       -0.6918898621
 C         -2.9039860548       -0.7820544101       -0.8162034847
 C         -3.6639150154       -0.0298113909        0.0807562712
 N         -5.0525688396        0.0417987555       -0.0546225276
 C         -5.9054486111       -1.0264505099       -0.2503518006
 C         -5.6287636809       -2.3861648754       -0.2765860385
 C         -6.6856295973       -3.2564521117       -0.4650775338
 C         -7.9910655069       -2.7941336589       -0.6144232051
 C         -8.2767029446       -1.4440006083       -0.5610100216
 C         -7.2313971986       -0.5503032347       -0.3729834400
 C         -7.1642993124        0.8796594637       -0.2511581887
 C         -8.1165220145        1.8879485157       -0.3086412611
 C         -7.7007335649        3.1985457784       -0.1792807140
 C         -6.3532122068        3.5089418196       -0.0115624751
 C         -5.3874564661        2.5226192235        0.0486221367
 C         -5.8017914880        1.2023646219       -0.0535371964
 C         -3.0160947686        0.6566101162        1.1082932094
 C         -1.6437398414        0.6186258941        1.2138887452
 C          1.2738275976       -1.3966439603        0.3993052037
 C          0.5877510166       -2.6091210030        0.5137616635
 C          1.2496502027       -3.8305442201        0.4275788478
 C          2.6112491699       -3.8569123477        0.2102312229
 C          3.3273725308       -2.6649125440        0.1567798216
 C          2.6977436074       -1.4261529128        0.3174193364
 C          5.6590635300       -1.0106896130        1.1651120550
 C          7.0191385302       -1.0331695171        1.0857956903
 C          7.7069157717       -0.2874637610        0.1010978085
 C          9.1083342134       -0.3050514253       -0.0185681901
 H         10.8130914973        0.4109066324       -1.0748958864
 H          9.5001828102        1.7933336830       -2.6332317534
 H          7.0437401811        1.8657362652       -2.4625417445
 H          4.9757602040        1.1204784212       -1.3813597866
 H          4.5081959204        2.2284289184        0.7806582397
 H          3.3430066834        4.3834249255        0.7811016312
 H          0.8913548872        4.4591765520        0.4238298759
 H         -0.3731802843        2.3786007162        0.1938309258
 H         -0.9538803696       -1.3925721328       -1.4123725027
 H         -3.3967840083       -1.2948293750       -1.6286052561
 H         -4.6237698278       -2.7563874401       -0.1421041641
 H         -6.4949824474       -4.3189965801       -0.4939509345
 H         -8.7889700069       -3.5059331264       -0.7639009568
 H         -9.2906702276       -1.0865362157       -0.6581770841
 H         -9.1585488110        1.6479467007       -0.4560094645
 H         -8.4258010708        3.9977789710       -0.2158001560
 H         -6.0556365589        4.5437827813        0.0710540932
 H         -4.3437863204        2.7759282620        0.1571755730
 H         -3.6022797991        1.2017467467        1.8330671259
 H         -1.1561465842        1.1304039316        2.0305822271
 H         -0.4787348601       -2.6013969739        0.6778710119
 H          0.6885746586       -4.7491088013        0.5123490964
 H          3.1306344584       -4.7963828731        0.0941685993
 H          4.3913279992       -2.7016593822       -0.0170702670
 H          5.1480338107       -1.5646564807        1.9395002045
 H          7.5963424184       -1.6223714992        1.7846500877
 H          9.6813193104       -0.9132260454        0.6672549141
  70
  -106.164853547400       0.159312658075297      !
 C          9.8643783312        0.3442452708       -0.3930343058
 C          9.2500914800        1.1356899626       -1.3750084195
 C          7.8872301448        1.1938150991       -1.4637944736
 C          7.0744186633        0.4599873376       -0.5717765347
 C          5.6718567667        0.5044491011       -0.6361453095
 C          4.8814847929       -0.2258728448        0.2332835696
 C          3.4284820794       -0.1754140963        0.1657707519
 C          2.7522581199        1.0823993397        0.2041148820
 C          3.4416902363        2.2867572424        0.3780934662
 C          2.7895270992        3.5143968833        0.3173523559
 C          1.4329505528        3.5583484647        0.0735511795
 C          0.7118434405        2.3729585678       -0.0359741294
 C          1.3304569441        1.1255552350        0.0904814195
 C          0.5804179865       -0.0913716113        0.0741719348
 C         -0.8715203880       -0.0463615000        0.0422534617
 C         -1.5986814147       -0.7576222944       -0.9224596114
 C         -2.9738220801       -0.7114727073       -0.9571120015
 C         -3.6787938914        0.0316309733       -0.0094336732
 N         -5.0752890400        0.0632547563       -0.0320323194
 C         -5.9046749641       -1.0366311683       -0.1319706658
 C         -5.5830635062       -2.3859890333       -0.1746443791
 C         -6.6212500994       -3.2951909666       -0.2464822281
 C         -7.9509935376       -2.8809218047       -0.2654887419
 C         -8.2783457793       -1.5410488582       -0.1950376711
 C         -7.2524019365       -0.6088679977       -0.1226119616
 C         -7.2248698703        0.8236167354       -0.0160803188
 C         -8.2140252365        1.7966490789        0.0214486375
 C         -7.8352144165        3.1221261310        0.1051722871
 C         -6.4898686535        3.4819080153        0.1340310035
 C         -5.4874698755        2.5312808618        0.0973182392
 C         -5.8618293273        1.1961197742        0.0406408092
 C         -2.9692094797        0.7395690982        0.9613309966
 C         -1.5931900817        0.7093030430        0.9769621965
 C          1.2556308439       -1.3508785766        0.0909923946
 C          0.5609051010       -2.5621154879        0.1662664302
 C          1.2197241460       -3.7855455752        0.0874242614
 C          2.5887138440       -3.8177031178       -0.0760325563
 C          3.3120494765       -2.6288285763       -0.0810584228
 C          2.6816192575       -1.3891824200        0.0671242716
 C          5.5204175273       -1.0300483871        1.2110581922
 C          6.8783015955       -1.0770022025        1.3066612599
 C          7.6991991583       -0.3434174080        0.4195361880
 C          9.1035722311       -0.3797205960        0.4860720059
 H         10.9423978128        0.3102685152       -0.3370559340
 H          9.8649321594        1.6991034967       -2.0616883501
 H          7.4089852818        1.8032168706       -2.2175087480
 H          5.2058293133        1.0956469606       -1.4119213713
 H          4.5031672379        2.2669392229        0.5694128063
 H          3.3545518801        4.4254226621        0.4461184351
 H          0.9214988603        4.5047166069       -0.0194380635
 H         -0.3480930794        2.4221412831       -0.2312041071
 H         -1.0630068998       -1.3107765015       -1.6796821167
 H         -3.5158810287       -1.2298979184       -1.7338596244
 H         -4.5569311056       -2.7190463896       -0.1396086009
 H         -6.3959842648       -4.3506737115       -0.2843702951
 H         -8.7336778143       -3.6221709407       -0.3254351132
 H         -9.3091704824       -1.2207530941       -0.1908868678
 H         -9.2562084794        1.5183977774       -0.0193045746
 H         -8.5887601653        3.8945829006        0.1386306760
 H         -6.2235615423        4.5273807712        0.1821565058
 H         -4.4480880670        2.8224818899        0.0996613383
 H         -3.5095911852        1.2892200533        1.7174913877
 H         -1.0556152375        1.2349740417        1.7522197456
 H         -0.5099180788       -2.5529580944        0.2970360561
 H          0.6509366010       -4.7019017634        0.1396309669
 H          3.1074675994       -4.7585259803       -0.1832763586
 H          4.3828834000       -2.6677956286       -0.2065009169
 H          4.9042947542       -1.5764071769        1.9106279053
 H          7.3508298637       -1.6756136477        2.0728768478
 H          9.5725180002       -0.9914318241        1.2438659006
  70
  -106.164835242600       0.156256459637494      !
 C          9.7705135714       -0.2374251352       -0.9555541042
 C          9.0487866842       -0.7873225737       -2.0256258979
 C          7.6840662748       -0.8485821335       -1.9803005255
 C          6.9772671287       -0.3586564704       -0.8600442959
 C          5.5753712679       -0.4053205239       -0.7868225683
 C          4.8885965291        0.0963489618        0.3037385640
 C          3.4331396768        0.0582927051        0.3531625529
 C          2.6944335735        1.2675126635        0.5369445324
 C          3.3363238925        2.5082227529        0.6122798112
 C          2.6217049827        3.6952923177        0.7385606195
 C          1.2437491854        3.6672619828        0.7340137725
 C          0.5776344275        2.4524017492        0.6028544966
 C          1.2674214766        1.2379427887        0.5337168310
 C          0.5836220958       -0.0048429457        0.3497628420
 C         -0.8676335648       -0.0333564861        0.2754790024
 C         -1.5125176431       -0.6071660825       -0.8292658694
 C         -2.8840283819       -0.5964190518       -0.9404928212
 C         -3.6677857986       -0.0302496137        0.0659315841
 N         -5.0593747545       -0.0007095023       -0.0528760100
 C         -5.8670848561       -1.0627123967       -0.4087510984
 C         -5.5317055319       -2.3880877611       -0.6472090171
 C         -6.5516713451       -3.2651113482       -0.9635772557
 C         -7.8776193503       -2.8443198194       -1.0326821615
 C         -8.2211337683       -1.5329365211       -0.7691219375
 C         -7.2137310914       -0.6332052858       -0.4497192769
 C         -7.2077543666        0.7618231352       -0.1061062800
 C         -8.2037837549        1.7229221574        0.0002058813
 C         -7.8442015466        3.0145409601        0.3317804730
 C         -6.5096912856        3.3554135570        0.5393600421
 C         -5.5008395199        2.4162181431        0.4387013158
 C         -5.8584449325        1.1106584393        0.1327669411
 C         -3.0417556511        0.5148753005        1.1873642518
 C         -1.6682330141        0.5212515049        1.2832775846
 C          1.3244502564       -1.2196577398        0.2056967475
 C          0.6850054818       -2.4625498899        0.1645388450
 C          1.4029401728       -3.6506011964        0.0649783000
 C          2.7811943441       -3.6186147716        0.0502104331
 C          3.4455441095       -2.3995899785        0.1421225572
 C          2.7499762387       -1.1874005006        0.2011772519
 C          5.6334477491        0.6509168690        1.3744362657
 C          6.9948642540        0.6899020978        1.3379328177
 C          7.7101740648        0.2001618611        0.2212562786
 C          9.1140990822        0.2448078377        0.1452231177
 H         10.8485219671       -0.1971969799       -1.0081801479
 H          9.5822233658       -1.1618288030       -2.8871127322
 H          7.1229865444       -1.2721398850       -2.8013465197
 H          5.0235680708       -0.8093307418       -1.6240988137
 H          4.4123284832        2.5531005965        0.5532328602
 H          3.1528771202        4.6321068192        0.8164803875
 H          0.6745291617        4.5819054760        0.8075354541
 H         -0.4984179725        2.4570561157        0.5307098847
 H         -0.9139910191       -1.0162439838       -1.6297698777
 H         -3.3615341133       -0.9972136850       -1.8221041091
 H         -4.5098739610       -2.7289458140       -0.5772885572
 H         -6.3153826562       -4.3008807005       -1.1575802028
 H         -8.6454426664       -3.5593683989       -1.2869015150
 H         -9.2505949788       -1.2105333216       -0.8052782241
 H         -9.2359360493        1.4626340111       -0.1793282491
 H         -8.6035053117        3.7767216828        0.4218740673
 H         -6.2564755194        4.3775460962        0.7788825504
 H         -4.4680306235        2.6959845779        0.5806477027
 H         -3.6450568536        0.9122246637        1.9899869870
 H         -1.1959829903        0.9181217402        2.1698470215
 H         -0.3908701159       -2.5078736714        0.2315632392
 H          0.8742096237       -4.5908447907        0.0171065153
 H          3.3516856851       -4.5333644445       -0.0108353173
 H          4.5233572972       -2.3943634928        0.1883049877
 H          5.0995820115        1.0067832058        2.2438551786
 H          7.5517239270        1.0954881490        2.1710518112
 H          9.6664519223        0.6697006551        0.9715676120
  70
  -106.164865062500       0.161265793293937      !
 C          9.8599380556        0.0990809741       -0.5625475562
 C          9.2374535951        0.3568327160       -1.7929066962
 C          7.8737320488        0.3719455102       -1.8885063575
 C          7.0682843785        0.1295650643       -0.7536908493
 C          5.6655339002        0.1447576823       -0.8207312190
 C          4.8817338611       -0.1019899516        0.2935801461
 C          3.4297475587       -0.0809795658        0.2225022326
 C          2.7530819763        1.0621853932       -0.3090756757
 C          3.4454161191        2.2172748780       -0.6837165574
 C          2.7839494384        3.3405597827       -1.1736485702
 C          1.4081358585        3.3456274487       -1.2548202456
 C          0.6881150803        2.2308064180       -0.8357257839
 C          1.3275468735        1.0755661582       -0.3739175170
 C          0.5836508022       -0.0347124555        0.1270197920
 C         -0.8756688049       -0.0096136840        0.0836229243
 C         -1.5556460775        0.1085093328       -1.1325871328
 C         -2.9331904677        0.1157575612       -1.1777299299
 C         -3.6731277290        0.0289650268        0.0001320004
 N         -5.0724199555        0.0449486658       -0.0422325502
 C         -5.8650668629       -0.7799731080       -0.8138540712
 C         -5.4976361885       -1.8146434871       -1.6622957330
 C         -6.5051304790       -2.5165000162       -2.2960355835
 C         -7.8477515844       -2.2065336788       -2.0904885420
 C         -8.2196556819       -1.1906975884       -1.2321349742
 C         -7.2255615347       -0.4712718203       -0.5828136370
 C         -7.2432532606        0.6030950571        0.3708311731
 C         -8.2597926191        1.3416325462        0.9612234982
 C         -7.9195060340        2.3499211045        1.8413140583
 C         -6.5855739723        2.6336449278        2.1262253025
 C         -5.5562382499        1.9124874669        1.5520215146
 C         -5.8929667331        0.8851958388        0.6821326150
 C         -3.0075368592       -0.0757226864        1.2201045767
 C         -1.6300650218       -0.1065857603        1.2570789745
 C          1.2550160329       -1.1718262370        0.6676722683
 C          0.5501761733       -2.3069863654        1.0817249223
 C          1.2064354311       -3.4471208714        1.5358187964
 C          2.5840438623       -3.4898104063        1.5346280261
 C          3.3113188727       -2.3859581305        1.0963886397
 C          2.6808200238       -1.2049980286        0.6941585658
 C          5.5298579999       -0.3715852613        1.5263016745
 C          6.8883310352       -0.3760615593        1.6219459581
 C          7.7017445373       -0.1337276436        0.4907137041
 C          9.1062776285       -0.1409736334        0.5559996391
 H         10.9384186783        0.0908273171       -0.5049458364
 H          9.8463870559        0.5430983861       -2.6655790691
 H          7.3892967626        0.5716186585       -2.8337303808
 H          5.1930464014        0.3138960032       -1.7782315719
 H          4.5178430287        2.2528219257       -0.5726187090
 H          3.3556031133        4.2069340651       -1.4710958432
 H          0.8814253570        4.2142465897       -1.6205814995
 H         -0.3900741566        2.2687330907       -0.8517100364
 H         -0.9872203947        0.1689133414       -2.0492262143
 H         -3.4480944322        0.2031461026       -2.1229772276
 H         -4.4600134432       -2.0716814483       -1.8141547802
 H         -6.2458675829       -3.3261713735       -2.9620772609
 H         -8.6054820380       -2.7780111270       -2.6054065594
 H         -9.2606392458       -0.9610761298       -1.0617790096
 H         -9.2931297124        1.1322768605        0.7294432860
 H         -8.6950002512        2.9358680450        2.3112810391
 H         -6.3504505752        3.4377922395        2.8077091807
 H         -4.5245877323        2.1490896026        1.7653499248
 H         -3.5801045843       -0.1483970718        2.1329033607
 H         -1.1191331523       -0.1829198263        2.2058312817
 H         -0.5275945368       -2.3090437383        1.0312100355
 H          0.6299481241       -4.2992385027        1.8636039721
 H          3.1068171197       -4.3781701806        1.8561284122
 H          4.3869675680       -2.4556927039        1.0521954709
 H          4.9202196102       -0.5313374795        2.4038677425
 H          7.3677794183       -0.5583990512        2.5734701808
 H          9.5817569264       -0.3408546252        1.5059110390
  70
  -106.164622579600       0.124768465019693      !
 C          9.8600689958       -0.3402493325       -0.4917128501
 C          9.2375660786       -0.8700749795       -1.6318639098
 C          7.8740043832       -0.8967797877       -1.7260696415
 C          7.0689205028       -0.3925617823       -0.6809829553
 C          5.6655604570       -0.4087133967       -0.7491644075
 C          4.8841266576        0.0969155214        0.2736009872
 C          3.4295305135        0.0804018333        0.2003611907
 C          2.7016667839        1.3010575264        0.3484094819
 C          3.3592082017        2.5323227667        0.4424921187
 C          2.6575516343        3.7300019805        0.5349420378
 C          1.2801550216        3.7216908433        0.4795426466
 C          0.6013267148        2.5158302083        0.3327594749
 C          1.2764227081        1.2916802297        0.2950386254
 C          0.5799388119        0.0573972771        0.1010759899
 C         -0.8724967603        0.0459173110        0.0622527809
 C         -1.5663245455       -0.5274417652       -1.0127557322
 C         -2.9422105686       -0.5309330898       -1.0540735537
 C         -3.6798269387        0.0269557557       -0.0093424367
 N         -5.0766009937        0.0172034852       -0.0437664542
 C         -5.8711375470       -1.0819601423       -0.3028944117
 C         -5.5069288227       -2.4006637794       -0.5354383619
 C         -6.5162428867       -3.3229319276       -0.7364662206
 C         -7.8583902388       -2.9519375501       -0.6998211018
 C         -8.2277276676       -1.6458714082       -0.4443333227
 C         -7.2315540437       -0.7012921846       -0.2390364931
 C         -7.2483836235        0.7023149241        0.0675929903
 C         -8.2661579358        1.6312177121        0.2350668117
 C         -7.9270744087        2.9424937455        0.5054648996
 C         -6.5932017044        3.3341892076        0.5933555639
 C         -5.5628293588        2.4278125281        0.4305908944
 C         -5.8975194831        1.1037722658        0.1842736670
 C         -3.0039492034        0.5952711396        1.0710500192
 C         -1.6280063530        0.6106488797        1.0996756209
 C          1.3093219296       -1.1635406999       -0.0546300173
 C          0.6580211778       -2.3976904579       -0.1455399455
 C          1.3633343733       -3.5918663189       -0.2597590723
 C          2.7413834454       -3.5779571839       -0.2305589270
 C          3.4163465559       -2.3709685016       -0.0792962887
 C          2.7356724064       -1.1506450048       -0.0122320704
 C          5.5307320418        0.6359012943        1.4144372065
 C          6.8892539144        0.6488809426        1.5132368211
 C          7.7019137532        0.1450887416        0.4717794605
 C          9.1068371476        0.1560922156        0.5388063247
 H         10.9385075852       -0.3266735999       -0.4340955564
 H          9.8464252519       -1.2566548909       -2.4361290667
 H          7.3894815246       -1.3040435210       -2.6022239043
 H          5.1928252806       -0.7929368711       -1.6422616779
 H          4.4373999542        2.5601708546        0.4256006358
 H          3.1987690837        4.6596528019        0.6279121270
 H          0.7223334370        4.6450424369        0.5271256631
 H         -0.4716529547        2.5342195163        0.2239483113
 H         -1.0056361350       -0.9284668730       -1.8441330355
 H         -3.4602291011       -0.9412456956       -1.9081370971
 H         -4.4704030118       -2.7019172772       -0.5461000377
 H         -6.2583342208       -4.3550881461       -0.9218257244
 H         -8.6175799293       -3.7017607961       -0.8642961783
 H         -9.2681384793       -1.3618139467       -0.3987403085
 H         -9.2995733761        1.3312856665        0.1494671230
 H         -8.7034938625        3.6802912288        0.6414984744
 H         -6.3585156607        4.3700280702        0.7887563858
 H         -4.5322104932        2.7449360528        0.4810149032
 H         -3.5704420058        0.9986878903        1.8971490039
 H         -1.1156586390        1.0209512677        1.9573142712
 H         -0.4192281250       -2.4337427948       -0.1060094510
 H          0.8241168636       -4.5229316367       -0.3512008916
 H          3.3026086080       -4.4977056463       -0.3008610189
 H          4.4912760237       -2.3831866244        0.0086727568
 H          4.9199186003        1.0015852056        2.2273259298
 H          7.3684696924        1.0411047184        2.3993193583
 H          9.5821947938        0.5646602179        1.4194712533
  70
  -106.164558004100       0.116527381401228      !
 C          9.8686099142       -0.5355354219       -0.1518306076
 C          9.2618104795       -1.6330299274       -0.7805307431
 C          7.8998253581       -1.7152213843       -0.8664501412
 C          7.0804446216       -0.7000342328       -0.3251141991
 C          5.6787131403       -0.7606398809       -0.3937381844
 C          4.8816248582        0.2417862840        0.1306445299
 C          3.4299283145        0.1762841424        0.0635355820
 C          2.6966851862        1.2766134254       -0.4796376315
 C          3.3414643188        2.3691131691       -1.0674419400
 C          2.6309892974        3.4822005008       -1.5088419640
 C          1.2606017750        3.5225367777       -1.3618608901
 C          0.5874244562        2.4193778519       -0.8446663770
 C          1.2701268207        1.2619899739       -0.4570338149
 C          0.5819983274        0.0924049342       -0.0118230387
 C         -0.8736941222        0.0574008626       -0.0182528437
 C         -1.6020570069        0.3405508655       -1.1801903956
 C         -2.9794363620        0.3099201578       -1.1827386778
 C         -3.6779505750        0.0082202469       -0.0142572148
 N         -5.0767167222       -0.0093332880       -0.0080837469
 C         -5.8826347401       -0.6781958500       -0.9077870147
 C         -5.5307043595       -1.5034636711       -1.9666466595
 C         -6.5491064616       -2.0814684570       -2.7002573546
 C         -7.8882506896       -1.8563855558       -2.3892706793
 C         -8.2445476885       -1.0564709850       -1.3214393104
 C         -7.2389970095       -0.4646089234       -0.5693620317
 C         -7.2414718212        0.3823011954        0.5909926529
 C         -8.2505377087        0.9427675822        1.3621835739
 C         -7.8991228868        1.7512112675        2.4251270235
 C         -6.5619773221        2.0165008229        2.7119777383
 C         -5.5402521264        1.4703070570        1.9590649951
 C         -5.8864072227        0.6356049830        0.9057415971
 C         -2.9655211060       -0.2746988250        1.1508272676
 C         -1.5884142518       -0.2575349327        1.1442159982
 C          1.3168324728       -1.0429000332        0.4495897955
 C          0.6800689705       -2.2411942798        0.7864852063
 C          1.3859208796       -3.3159934124        1.3197419176
 C          2.7434999457       -3.2042619180        1.5333796473
 C          3.4121102911       -2.0452494846        1.1489035508
 C          2.7391534598       -0.9778362296        0.5466703158
 C          5.5138499665        1.3487266414        0.7526741621
 C          6.8703581293        1.4237698235        0.8474565102
 C          7.6978442814        0.4114300345        0.3091289937
 C          9.1012861733        0.4656720896        0.3820163729
 H         10.9459259786       -0.4867335759       -0.0929233017
 H          9.8815354194       -2.4134917044       -1.1973958199
 H          7.4273784611       -2.5595881285       -1.3482461232
 H          5.2195304761       -1.5933768075       -0.9078055478
 H          4.4135552146        2.3515852442       -1.1869556561
 H          3.1615781469        4.3138596955       -1.9477840857
 H          0.7011357757        4.3965546412       -1.6601219430
 H         -0.4851296923        2.4646357508       -0.7370227483
 H         -1.0695661980        0.5575764564       -2.0945013289
 H         -3.5265846781        0.5344258871       -2.0863040399
 H         -4.4960522843       -1.6994048362       -2.2044321201
 H         -6.3006934424       -2.7259559544       -3.5305463537
 H         -8.6548218400       -2.3242613169       -2.9885650008
 H         -9.2819573150       -0.8952114789       -1.0700151887
 H         -9.2870724610        0.7525216292        1.1280657738
 H         -8.6683467007        2.1951973069        3.0389677119
 H         -6.3178935341        2.6664176583        3.5392082457
 H         -4.5077091209        1.6964337851        2.1788598188
 H         -3.5021244202       -0.5225177925        2.0545148378
 H         -1.0455314182       -0.4610531336        2.0555290496
 H         -0.3818899456       -2.3413366845        0.6239183316
 H          0.8615334531       -4.2244813459        1.5756115202
 H          3.2971049507       -4.0134954044        1.9854652165
 H          4.4729696570       -1.9695216340        1.3296699085
 H          4.8925415680        2.1163992518        1.1909977527
 H          7.3368095274        2.2623890790        1.3451791163
 H          9.5644825191        1.3137229415        0.8665151966
  70
  -106.164522038500       0.112175842955402      !
 C          9.8706986363        0.0792021090       -0.5016041817
 C          9.2659624060        0.2510402920       -1.7555353037
 C          7.9037702968        0.2603682190       -1.8713241668
 C          7.0820484149        0.0970812471       -0.7342073063
 C          5.6800091750        0.1041809191       -0.8225737697
 C          4.8814641132       -0.0686397207        0.2941021221
 C          3.4292240181       -0.0636297178        0.2028427538
 C          2.7489521844        1.0437161982       -0.3937072260
 C          3.4402494511        2.1776173739       -0.8314549664
 C          2.7777001121        3.2750405646       -1.3738118764
 C          1.4011285684        3.2798958811       -1.4394266544
 C          0.6832906447        2.1877748379       -0.9610587314
 C          1.3231039590        1.0506108651       -0.4573187016
 C          0.5815157415       -0.0435320849        0.0863725948
 C         -0.8748890829       -0.0251649276        0.0535618200
 C         -1.5719136485        0.1192401421       -1.1518426220
 C         -2.9492663133        0.1299995533       -1.1804412633
 C         -3.6782372468        0.0094344360        0.0022625291
 N         -5.0764894573        0.0284715433       -0.0244733651
 C         -5.8780684308       -0.7275625015       -0.8566894392
 C         -5.5236166794       -1.7004791574       -1.7805607800
 C         -6.5388432254       -2.3365566065       -2.4691080377
 C         -7.8776868221       -2.0248976694       -2.2432853059
 C         -8.2377687877       -1.0769608264       -1.3060520382
 C         -7.2353554855       -0.4244325371       -0.6013598153
 C         -7.2428425627        0.5704396648        0.4348532951
 C         -8.2544473453        1.2644627358        1.0843905497
 C         -7.9074481645        2.1962770119        2.0429008814
 C         -6.5712739417        2.4506933142        2.3440321897
 C         -5.5469551071        1.7733381824        1.7104698562
 C         -5.8900037454        0.8175086358        0.7644367620
 C         -2.9968382379       -0.1305227964        1.2109041334
 C         -1.6197079326       -0.1542255481        1.2320961459
 C          1.2611229595       -1.1568331571        0.6699461035
 C          0.5667863820       -2.2903451747        1.1051048338
 C          1.2298775754       -3.3991603321        1.6223713187
 C          2.6075302254       -3.4154947647        1.6631614973
 C          3.3263941592       -2.3203411209        1.1926859795
 C          2.6862791601       -1.1699755093        0.7210299440
 C          5.5112412064       -0.2498583160        1.5518848896
 C          6.8681897907       -0.2436039600        1.6677983074
 C          7.6973757597       -0.0787581333        0.5343557371
 C          9.1010764352       -0.0814345115        0.6200135319
 H         10.9482589477        0.0737386486       -0.4284181515
 H          9.8874340125        0.3757190245       -2.6302135918
 H          7.4331116621        0.3945063024       -2.8350122595
 H          5.2213063848        0.2066157360       -1.7960169651
 H          4.5131979962        2.2165396410       -0.7286499561
 H          3.3480065410        4.1235633500       -1.7207293087
 H          0.8719053695        4.1315274433       -1.8400899663
 H         -0.3944579771        2.2325839686       -0.9644045012
 H         -1.0163348028        0.1948262409       -2.0750104221
 H         -3.4730321769        0.2472402588       -2.1174062476
 H         -4.4901405705       -1.9630616567       -1.9490990068
 H         -6.2882441674       -3.0953090229       -3.1954981041
 H         -8.6415969703       -2.5421145881       -2.8042787422
 H         -9.2758345282       -0.8482069459       -1.1180961155
 H         -9.2891592291        1.0799240660        0.8379546371
 H         -8.6788773268        2.7452933861        2.5617261720
 H         -6.3297039482        3.1969197774        3.0864113198
 H         -4.5144409108        1.9918854386        1.9378447704
 H         -3.5570847118       -0.2361588227        2.1278683684
 H         -1.0995840532       -0.2482585880        2.1740930208
 H         -0.5084382312       -2.3185028119        1.0219179523
 H          0.6591371643       -4.2482086640        1.9677374419
 H          3.1365040090       -4.2781782427        2.0398920236
 H          4.4037896180       -2.3720693955        1.1784252262
 H          4.8884439553       -0.3520578903        2.4287093639
 H          7.3338191810       -0.3589226624        2.6364318039
 H          9.5626552954       -0.2153738743        1.5881437941
