  112
  -188.171004090000       0.368509675672007      !
 N         -0.1935483855        1.7795078536       -4.0042279461
 C         -0.0790313914        1.3522069851       -2.9463892583
 C          0.0627635248        0.8037768067       -1.6510672688
 C          1.2655001447        0.9815566013       -0.9500707074
 N          2.2979162868        1.7395546724       -1.4957384156
 C          2.2349644681        3.1045582774       -1.7323808751
 C          1.1384473714        3.9502072346       -1.7042410416
 C          1.3602424391        5.2943040627       -1.9404146643
 C          2.6387279682        5.7871983159       -2.1865200482
 C          3.7359886273        4.9481337327       -2.1928577546
 C          3.5386481554        3.5943519890       -1.9609677897
 C          4.4272184569        2.4680395072       -1.8642769270
 C          5.8003222446        2.3134841692       -1.9910999633
 C          6.3391980024        1.0488064620       -1.8505912267
 C          5.5257011410       -0.0589459438       -1.6278834205
 C          4.1552979928        0.0699592441       -1.5061544946
 C          3.6217863110        1.3456270489       -1.5812865476
 C          1.4015154338        0.4026991621        0.3193755000
 N          2.5992760064        0.5156361367        1.0250315526
 C          3.2259205756        1.6953817271        1.3786402794
 C          2.7516742314        2.9940594842        1.2979855218
 C          3.5906321446        4.0069535756        1.7209787286
 C          4.8544821788        3.7329140236        2.2384989791
 C          5.3058537887        2.4344980832        2.3707567402
 C          4.4848006255        1.3994203349        1.9430481068
 C          4.6182089076       -0.0299358482        1.9294178287
 C          5.6377809922       -0.8927121105        2.3271428217
 C          5.4883191210       -2.2464607448        2.1342077787
 C          4.3398329050       -2.7556153825        1.5175627407
 C          4.0521153738       -4.1263915698        1.1815209683
 C          4.8076096046       -5.2691015830        1.4307363919
 C          4.3432379986       -6.4999977798        1.0145583972
 C          3.1279854680       -6.6157534461        0.3468980720
 C          2.3591812833       -5.4977308634        0.0853439535
 C          2.8292376189       -4.2657597404        0.5054631907
 S          2.0154965298       -2.7360089475        0.2742819775
 C          3.3092082120       -1.8940020338        1.1119291957
 C          3.4349577960       -0.5340527585        1.3475113459
 C          0.3288347142       -0.3052437353        0.8828353267
 C          0.4756289779       -0.8403440658        2.1842586257
 N          0.6126789240       -1.2503848476        3.2463815924
 C         -0.8735416295       -0.4818707746        0.1838104802
 N         -1.9189163904       -1.2235416474        0.7324636010
 C         -2.5421066661       -2.2654926044        0.0638971058
 C         -2.0535723182       -3.0363773844       -0.9771831970
 C         -2.8620834648       -4.0497020770       -1.4564509361
 C         -4.1159080530       -4.2959525792       -0.9041743070
 C         -4.5805714363       -3.5610437095        0.1699763737
 C         -3.7827599440       -2.5428857019        0.6721626081
 C         -3.9052942048       -1.6319873528        1.7777676030
 C         -4.9014489835       -1.4064917872        2.7170031459
 C         -4.7015850887       -0.4298303996        3.6726235130
 C         -3.5205044572        0.3052364334        3.7071315140
 C         -2.5166553034        0.1026626062        2.7784743900
 C         -2.7239765926       -0.8592248198        1.8043185344
 C         -1.0014010455        0.0791386834       -1.0998873237
 N         -2.2046856878       -0.0518118767       -1.8005021910
 C         -2.4479591162       -0.8828401903       -2.8822773778
 C         -1.5483459716       -1.4655300723       -3.7581133100
 C         -2.0583399199       -2.2782706255       -4.7528688450
 C         -3.4263364481       -2.5118565810       -4.8686749842
 C         -4.3249239263       -1.9361545876       -3.9925815021
 C         -3.8384380060       -1.1102013430       -2.9886577736
 C         -4.4663980953       -0.3764911133       -1.9250332705
 C         -5.7852669295       -0.2231986766       -1.4994853309
 C         -6.0558186429        0.5855428443       -0.4183003158
 C         -5.0341651547        1.3076437311        0.2096454968
 C         -5.1361377305        2.2539467614        1.2892421543
 C         -6.2529825210        2.6149311280        2.0368182896
 C         -6.1280302344        3.5453641394        3.0478281015
 C         -4.8987823907        4.1339934137        3.3265976836
 C         -3.7747069627        3.7952040735        2.5978085255
 C         -3.9032690917        2.8561892194        1.5901040550
 S         -2.6042681678        2.2731303663        0.5741487130
 C         -3.7095558277        1.1764478819       -0.2296728138
 C         -3.4228220940        0.2773919083       -1.2406904658
 H          0.1432424999        3.5850410287       -1.5019110682
 H          0.5228714005        5.9758610630       -1.9306875199
 H          2.7701985927        6.8431288990       -2.3679728792
 H          4.7282463568        5.3340359255       -2.3689077107
 H          6.4311511398        3.1641657449       -2.1981387402
 H          7.4062561945        0.9095562647       -1.9348250565
 H          5.9728892071       -1.0390286230       -1.5518680919
 H          3.5266576019       -0.7954316353       -1.3684128223
 H          1.7658418532        3.2147173644        0.9200966362
 H          3.2570947510        5.0313218737        1.6505374581
 H          5.4821558516        4.5520522490        2.5547248545
 H          6.2745274670        2.2252224336        2.7975722454
 H          6.5361387536       -0.4961218466        2.7733018680
 H          6.2659640764       -2.9293963400        2.4376057857
 H          5.7499302033       -5.1854835381        1.9498527117
 H          4.9284762430       -7.3858157657        1.2089867537
 H          2.7797928617       -7.5868890267        0.0302381497
 H          1.4136110634       -5.5759870687       -0.4293774606
 H         -1.0717156719       -2.8636627466       -1.3905871079
 H         -2.5142552956       -4.6607825591       -2.2757300634
 H         -4.7233164015       -5.0895444104       -1.3122428240
 H         -5.5384570624       -3.7784519260        0.6169742305
 H         -5.8135304874       -1.9830974760        2.6944297403
 H         -5.4661532011       -0.2329255055        4.4087638429
 H         -3.3877490186        1.0561005681        4.4716094895
 H         -1.6088787358        0.6833436399        2.8175036822
 H         -0.4864751168       -1.2921011056       -3.6738353948
 H         -1.3814615082       -2.7418967747       -5.4548135822
 H         -3.7852712615       -3.1537926082       -5.6588493756
 H         -5.3839978235       -2.1224062405       -4.0823215839
 H         -6.5819589684       -0.7381009906       -2.0129988662
 H         -7.0683486715        0.6972102926       -0.0636849536
 H         -7.2079388029        2.1592102516        1.8253305183
 H         -6.9931755655        3.8221021781        3.6310324228
 H         -4.8193142746        4.8606174662        4.1207446099
 H         -2.8166178770        4.2459332191        2.8077735845
  112
  -188.170958950000       0.351320900787640      !
 N         -0.6317007614        1.3117887546       -3.2030772928
 C         -0.4847086925        0.8955977417       -2.1445281629
 C         -0.3252017342        0.3546897505       -0.8469019119
 C          0.8835596780        0.5281454867       -0.1574924724
 N          1.9297361475        1.2586632777       -0.7183550363
 C          2.5860248214        2.2822237712       -0.0526157569
 C          2.1343575300        3.0514059337        1.0061915637
 C          2.9728182567        4.0427576933        1.4802286799
 C          4.2198333832        4.2703344790        0.9052551447
 C          4.6472626683        3.5390390962       -0.1867380422
 C          3.8191685294        2.5425448361       -0.6831658023
 C          3.9019885648        1.6413510129       -1.8003783774
 C          4.8749862309        1.4084806799       -2.7618676483
 C          4.6395172637        0.4445629141       -3.7223280832
 C          3.4463753956       -0.2712151907       -3.7382189003
 C          2.4650512298       -0.0606878303       -2.7873513012
 C          2.7068085995        0.8898958204       -1.8099889075
 C          1.0224919230       -0.0374268826        1.1235968812
 N          2.2397946893        0.0717113140        1.8039088076
 C          2.5213945239        0.8851436135        2.8893648418
 C          1.6520308493        1.4813037243        3.7865447057
 C          2.1993740393        2.2713208055        4.7797873573
 C          3.5745939555        2.4695722272        4.8743576255
 C          4.4432336318        1.8802660306        3.9774365388
 C          3.9187935811        1.0770593364        2.9741600819
 C          4.5104896300        0.3389169380        1.8931625731
 C          5.8180612767        0.1580794165        1.4441910376
 C          6.0508347250       -0.6460073849        0.3508599388
 C          5.0015176617       -1.3372159896       -0.2661385665
 C          5.0630291765       -2.2746622125       -1.3565288060
 C          6.1583788585       -2.6534296178       -2.1267750239
 C          5.9946564339       -3.5698181054       -3.1450691363
 C          4.7474037513       -4.1265055051       -3.4088655974
 C          3.6441158209       -3.7701195333       -2.6569555672
 C          3.8116357838       -2.8454438486       -1.6417252425
 S          2.5445351031       -2.2437714679       -0.5968916614
 C          3.6879737985       -1.1792642315        0.1971099404
 C          3.4397998430       -0.2828207747        1.2207974971
 C         -0.0403297183       -0.7555314201        1.6854793505
 C          0.1073519971       -1.2973790751        2.9829077479
 N          0.2272292570       -1.7158677438        4.0436685713
 C         -1.2456916537       -0.9386702555        0.9898786095
 N         -2.2709216875       -1.7030841085        1.5392570786
 C         -2.1940441218       -3.0648397874        1.7911843944
 C         -1.0895817436       -3.9003809795        1.7720967610
 C         -1.2981011433       -5.2436178643        2.0245165960
 C         -2.5715006334       -5.7461743612        2.2772527708
 C         -3.6767762577       -4.9177475367        2.2741768716
 C         -3.4925536591       -3.5649277396        2.0263855723
 C         -4.3924255828       -2.4486288445        1.9184823908
 C         -5.7665592554       -2.3062221850        2.0484832502
 C         -6.3183163881       -1.0483784187        1.8968965396
 C         -5.5164709123        0.0645610164        1.6585297483
 C         -4.1452656605       -0.0522840946        1.5332993862
 C         -3.5986838306       -1.3215349887        1.6216065003
 C         -1.3890666939       -0.3641566855       -0.2807446459
 N         -2.5808521508       -0.5107806853       -0.9907849342
 C         -3.1625011345       -1.7128603630       -1.3465541075
 C         -2.6466193988       -2.9946049151       -1.2507660375
 C         -3.4432268379       -4.0369148707       -1.6839453146
 C         -4.7060862298       -3.8079458564       -2.2253258941
 C         -5.1984860516       -2.5260944329       -2.3715275276
 C         -4.4203710237       -1.4621094058       -1.9343561076
 C         -4.5996220185       -0.0378535666       -1.9346045500
 C         -5.6381495894        0.7879411520       -2.3605771728
 C         -5.5341164011        2.1476359607       -2.1809711685
 C         -4.4126271175        2.6988187831       -1.5509589259
 C         -4.1729169933        4.0817495058       -1.2280407889
 C         -4.9608764433        5.1963228737       -1.5026538557
 C         -4.5435980425        6.4462324422       -1.0935643740
 C         -3.3433970321        6.6086084758       -0.4086838036
 C         -2.5428426254        5.5192048861       -0.1225431307
 C         -2.9658066046        4.2677274005       -0.5350601445
 S         -2.1077037934        2.7668809008       -0.2730013872
 C         -3.3628892934        1.8747697286       -1.1176439618
 C         -3.4429122300        0.5088611595       -1.3375622903
 H          1.1583071574        2.8933482881        1.4387189715
 H          2.6539835163        4.6508862564        2.3133087036
 H          4.8510635007        5.0473613044        1.3090186519
 H          5.5994930473        3.7431912621       -0.6518260808
 H          5.7970409260        1.9693264554       -2.7520916649
 H          5.3852847270        0.2424479811       -4.4761185865
 H          3.2856422523       -1.0134424065       -4.5057719748
 H          1.5484852735       -0.6279291122       -2.8131910971
 H          0.5847767873        1.3354957241        3.7193221114
 H          1.5465378675        2.7440127245        5.4982304274
 H          3.9629617697        3.0946270502        5.6640831017
 H          5.5080972147        2.0389150253        4.0502414353
 H          6.6353261285        0.6484454903        1.9492917927
 H          7.0541363022       -0.7782423908       -0.0223751935
 H          7.1270806637       -2.2219413708       -1.9272093260
 H          6.8427761886       -3.8589128166       -3.7469746783
 H          4.6373515392       -4.8418999552       -4.2095594941
 H          2.6721670274       -4.1956870659       -2.8559011026
 H         -0.0980402246       -3.5289606026        1.5637025806
 H         -0.4540992829       -5.9170025536        2.0223572219
 H         -2.6924488182       -6.8009576084        2.4720391547
 H         -4.6652047186       -5.3110459733        2.4552551952
 H         -6.3881795479       -3.1606918681        2.2674199328
 H         -7.3863652008       -0.9186078472        1.9841847379
 H         -5.9735009700        1.0392990652        1.5732016207
 H         -3.5257665514        0.8177925131        1.3845370100
 H         -1.6606266704       -3.1805771929       -0.8551440475
 H         -3.0768013155       -5.0491980894       -1.6026030704
 H         -5.2999762738       -4.6491300292       -2.5489299180
 H         -6.1655409987       -2.3512041146       -2.8170847283
 H         -6.5150731559        0.3584337559       -2.8186921657
 H         -6.3263297609        2.8028645812       -2.5068088641
 H         -5.8918213261        5.0758696224       -2.0349108298
 H         -5.1540073581        7.3103595422       -1.3073937020
 H         -3.0320023334        7.5939905961       -0.0976476647
 H         -1.6091029563        5.6345680029        0.4064835516
  112
  -188.170745090000       0.280169423540353      !
 N         -0.6135771612        1.2691886429       -3.1973536613
 C         -0.4717664410        0.8728983180       -2.1304778777
 C         -0.3120338088        0.3456192790       -0.8272533574
 C          0.8943228436        0.5288929070       -0.1362676259
 N          1.9298841285        1.2883495795       -0.6793709443
 C          2.5542833323        2.3119536866        0.0171912604
 C          2.0715440710        3.0467499356        1.0867376307
 C          2.8803025920        4.0463986280        1.5936512347
 C          4.1295812081        4.3143332285        1.0414838933
 C          4.5888137343        3.6159923130       -0.0590725116
 C          3.7902449243        2.6124759270       -0.5888769023
 C          3.9093084505        1.7363623711       -1.7225506233
 C          4.9014072401        1.5460588562       -2.6736391056
 C          4.7017599225        0.5983215109       -3.6579877071
 C          3.5246736117       -0.1419715514       -3.7080144016
 C          2.5243233777        0.0269377979       -2.7687114760
 C          2.7311313298        0.9592415355       -1.7661206094
 C          1.0435015102       -0.0494672579        1.1382820672
 N          2.2723563259        0.0441636842        1.7998208544
 C          2.5843507211        0.8402598199        2.8899290951
 C          1.7405772337        1.4246350806        3.8186341163
 C          2.3161837500        2.1950160418        4.8112595671
 C          3.6941163246        2.3863014893        4.8743543797
 C          4.5373912901        1.8080712354        3.9465362397
 C          3.9845548732        1.0232849599        2.9439740393
 C          4.5466466704        0.2960765646        1.8397167073
 C          5.8421729601        0.1110700727        1.3584787638
 C          6.0440472762       -0.6814434131        0.2505290799
 C          4.9758655894       -1.3564812893       -0.3517541183
 C          5.0044054081       -2.2779585013       -1.4570750288
 C          6.0780525929       -2.6540646885       -2.2585805512
 C          5.8820646379       -3.5514527222       -3.2881158248
 C          4.6238398142       -4.0921889308       -3.5324897916
 C          3.5416082418       -3.7384544091       -2.7493389289
 C          3.7415334014       -2.8327094278       -1.7229616738
 S          2.5033908244       -2.2347507285       -0.6418295710
 C          3.6744911414       -1.1939110661        0.1432261586
 C          3.4567193545       -0.3100752284        1.1846422685
 C         -0.0166274990       -0.7662133876        1.7068650882
 C          0.1404441953       -1.3124188288        3.0012605141
 N          0.2656614489       -1.7348119456        4.0599120503
 C         -1.2276032175       -0.9407745253        1.0190385031
 N         -2.2637872104       -1.6805359732        1.5815088673
 C         -2.2180265155       -3.0379710137        1.8614416630
 C         -1.1345204406       -3.9007211187        1.8543810608
 C         -1.3741826447       -5.2328186539        2.1361434229
 C         -2.6578458479       -5.6987751466        2.4064128497
 C         -3.7426132253       -4.8438932732        2.3913877703
 C         -3.5269220013       -3.5016172085        2.1138069460
 C         -4.4007179048       -2.3668187559        1.9868500537
 C         -5.7704628794       -2.1884530020        2.1194980322
 C         -6.2925474083       -0.9211068496        1.9436914144
 C         -5.4652910583        0.1671378948        1.6796115625
 C         -4.0978850606        0.0144967366        1.5515739690
 C         -3.5817826127       -1.2656204244        1.6633369674
 C         -1.3714630213       -0.3766992124       -0.2569023740
 N         -2.5605643068       -0.5434475596       -0.9664162178
 C         -3.1324773102       -1.7604408122       -1.2874570473
 C         -2.6014545518       -3.0335423968       -1.1635030983
 C         -3.3904619095       -4.0955243066       -1.5613942307
 C         -4.6604669292       -3.8942298763       -2.0969395754
 C         -5.1666633889       -2.6218006128       -2.2752247245
 C         -4.3960604551       -1.5384221133       -1.8737046115
 C         -4.5877767116       -0.1163781712       -1.9140691871
 C         -5.6346893277        0.6861660593       -2.3628539538
 C         -5.5399649203        2.0519945845       -2.2311720990
 C         -4.4205350521        2.6323167918       -1.6244752342
 C         -4.1870390780        4.0281439115       -1.3576720151
 C         -4.9779045537        5.1274357797       -1.6809708655
 C         -4.5630305010        6.3953373839       -1.3286982538
 C         -3.3631791787        6.5907096989       -0.6518098093
 C         -2.5606125025        5.5168453463       -0.3166757306
 C         -2.9804707045        4.2474246984       -0.6736789899
 S         -2.1169016419        2.7621196302       -0.3496621845
 C         -3.3649895184        1.8313148584       -1.1625649992
 C         -3.4337190385        0.4582767867       -1.3379499061
 H          1.0940069698        2.8564291976        1.5028228771
 H          2.5361291934        4.6293541809        2.4345767250
 H          4.7373313325        5.0962803314        1.4709390574
 H          5.5432770804        3.8503382349       -0.5049340254
 H          5.8098089631        2.1277947401       -2.6383370648
 H          5.4628842948        0.4292703625       -4.4045786585
 H          3.3914775053       -0.8701997237       -4.4940407264
 H          1.6196186545       -0.5567534147       -2.8233342991
 H          0.6715205389        1.2836214688        3.7765186742
 H          1.6836679139        2.6577884741        5.5539444927
 H          4.1050785494        2.9961341104        5.6645571836
 H          5.6045632012        1.9601280442        3.9961105742
 H          6.6746359569        0.5891601475        1.8504148216
 H          7.0377204350       -0.8164209526       -0.1467463103
 H          7.0553727279       -2.2355734453       -2.0739884420
 H          6.7134631152       -3.8388293364       -3.9137153584
 H          4.4884425095       -4.7927242541       -4.3423713069
 H          2.5609719058       -4.1506505878       -2.9334298131
 H         -0.1353395279       -3.5579773184        1.6337197910
 H         -0.5468809464       -5.9265796185        2.1438506110
 H         -2.8033617775       -6.7459893850        2.6240289483
 H         -4.7393247087       -5.2088999902        2.5859481499
 H         -6.4116000055       -3.0228659768        2.3585849986
 H         -7.3567776700       -0.7638141291        2.0322398439
 H         -5.8989312043        1.1508630028        1.5768720588
 H         -3.4580752460        0.8660391220        1.3825078501
 H         -1.6091024544       -3.1979734472       -0.7744266017
 H         -3.0123806874       -5.1013038910       -1.4565003929
 H         -5.2485022548       -4.7499731328       -2.3917821271
 H         -6.1386478506       -2.4690649785       -2.7181803477
 H         -6.5096093637        0.2344210488       -2.8030656796
 H         -6.3373601519        2.6899217919       -2.5780056077
 H         -5.9081478631        4.9813974460       -2.2080128045
 H         -5.1746198800        7.2478488149       -1.5821647472
 H         -3.0532076877        7.5897984059       -0.3865194129
 H         -1.6264862019        5.6577009188        0.2054553192
