  112
       -188.17100409
 N         -0.1935483855        1.7795078536       -4.0042279461
 C         -0.0790313914        1.3522069851       -2.9463892583
 C          0.0627635248        0.8037768067       -1.6510672688
 C          1.2655001447        0.9815566013       -0.9500707074
 N          2.2979162868        1.7395546724       -1.4957384156
 C          2.2349644681        3.1045582774       -1.7323808751
 C          1.1384473714        3.9502072346       -1.7042410416
 C          1.3602424391        5.2943040627       -1.9404146643
 C          2.6387279682        5.7871983159       -2.1865200482
 C          3.7359886273        4.9481337327       -2.1928577546
 C          3.5386481554        3.5943519890       -1.9609677897
 C          4.4272184569        2.4680395072       -1.8642769270
 C          5.8003222446        2.3134841692       -1.9910999633
 C          6.3391980024        1.0488064620       -1.8505912267
 C          5.5257011410       -0.0589459438       -1.6278834205
 C          4.1552979928        0.0699592441       -1.5061544946
 C          3.6217863110        1.3456270489       -1.5812865476
 C          1.4015154338        0.4026991621        0.3193755000
 N          2.5992760064        0.5156361367        1.0250315526
 C          3.2259205756        1.6953817271        1.3786402794
 C          2.7516742314        2.9940594842        1.2979855218
 C          3.5906321446        4.0069535756        1.7209787286
 C          4.8544821788        3.7329140236        2.2384989791
 C          5.3058537887        2.4344980832        2.3707567402
 C          4.4848006255        1.3994203349        1.9430481068
 C          4.6182089076       -0.0299358482        1.9294178287
 C          5.6377809922       -0.8927121105        2.3271428217
 C          5.4883191210       -2.2464607448        2.1342077787
 C          4.3398329050       -2.7556153825        1.5175627407
 C          4.0521153738       -4.1263915698        1.1815209683
 C          4.8076096046       -5.2691015830        1.4307363919
 C          4.3432379986       -6.4999977798        1.0145583972
 C          3.1279854680       -6.6157534461        0.3468980720
 C          2.3591812833       -5.4977308634        0.0853439535
 C          2.8292376189       -4.2657597404        0.5054631907
 S          2.0154965298       -2.7360089475        0.2742819775
 C          3.3092082120       -1.8940020338        1.1119291957
 C          3.4349577960       -0.5340527585        1.3475113459
 C          0.3288347142       -0.3052437353        0.8828353267
 C          0.4756289779       -0.8403440658        2.1842586257
 N          0.6126789240       -1.2503848476        3.2463815924
 C         -0.8735416295       -0.4818707746        0.1838104802
 N         -1.9189163904       -1.2235416474        0.7324636010
 C         -2.5421066661       -2.2654926044        0.0638971058
 C         -2.0535723182       -3.0363773844       -0.9771831970
 C         -2.8620834648       -4.0497020770       -1.4564509361
 C         -4.1159080530       -4.2959525792       -0.9041743070
 C         -4.5805714363       -3.5610437095        0.1699763737
 C         -3.7827599440       -2.5428857019        0.6721626081
 C         -3.9052942048       -1.6319873528        1.7777676030
 C         -4.9014489835       -1.4064917872        2.7170031459
 C         -4.7015850887       -0.4298303996        3.6726235130
 C         -3.5205044572        0.3052364334        3.7071315140
 C         -2.5166553034        0.1026626062        2.7784743900
 C         -2.7239765926       -0.8592248198        1.8043185344
 C         -1.0014010455        0.0791386834       -1.0998873237
 N         -2.2046856878       -0.0518118767       -1.8005021910
 C         -2.4479591162       -0.8828401903       -2.8822773778
 C         -1.5483459716       -1.4655300723       -3.7581133100
 C         -2.0583399199       -2.2782706255       -4.7528688450
 C         -3.4263364481       -2.5118565810       -4.8686749842
 C         -4.3249239263       -1.9361545876       -3.9925815021
 C         -3.8384380060       -1.1102013430       -2.9886577736
 C         -4.4663980953       -0.3764911133       -1.9250332705
 C         -5.7852669295       -0.2231986766       -1.4994853309
 C         -6.0558186429        0.5855428443       -0.4183003158
 C         -5.0341651547        1.3076437311        0.2096454968
 C         -5.1361377305        2.2539467614        1.2892421543
 C         -6.2529825210        2.6149311280        2.0368182896
 C         -6.1280302344        3.5453641394        3.0478281015
 C         -4.8987823907        4.1339934137        3.3265976836
 C         -3.7747069627        3.7952040735        2.5978085255
 C         -3.9032690917        2.8561892194        1.5901040550
 S         -2.6042681678        2.2731303663        0.5741487130
 C         -3.7095558277        1.1764478819       -0.2296728138
 C         -3.4228220940        0.2773919083       -1.2406904658
 H          0.1432424999        3.5850410287       -1.5019110682
 H          0.5228714005        5.9758610630       -1.9306875199
 H          2.7701985927        6.8431288990       -2.3679728792
 H          4.7282463568        5.3340359255       -2.3689077107
 H          6.4311511398        3.1641657449       -2.1981387402
 H          7.4062561945        0.9095562647       -1.9348250565
 H          5.9728892071       -1.0390286230       -1.5518680919
 H          3.5266576019       -0.7954316353       -1.3684128223
 H          1.7658418532        3.2147173644        0.9200966362
 H          3.2570947510        5.0313218737        1.6505374581
 H          5.4821558516        4.5520522490        2.5547248545
 H          6.2745274670        2.2252224336        2.7975722454
 H          6.5361387536       -0.4961218466        2.7733018680
 H          6.2659640764       -2.9293963400        2.4376057857
 H          5.7499302033       -5.1854835381        1.9498527117
 H          4.9284762430       -7.3858157657        1.2089867537
 H          2.7797928617       -7.5868890267        0.0302381497
 H          1.4136110634       -5.5759870687       -0.4293774606
 H         -1.0717156719       -2.8636627466       -1.3905871079
 H         -2.5142552956       -4.6607825591       -2.2757300634
 H         -4.7233164015       -5.0895444104       -1.3122428240
 H         -5.5384570624       -3.7784519260        0.6169742305
 H         -5.8135304874       -1.9830974760        2.6944297403
 H         -5.4661532011       -0.2329255055        4.4087638429
 H         -3.3877490186        1.0561005681        4.4716094895
 H         -1.6088787358        0.6833436399        2.8175036822
 H         -0.4864751168       -1.2921011056       -3.6738353948
 H         -1.3814615082       -2.7418967747       -5.4548135822
 H         -3.7852712615       -3.1537926082       -5.6588493756
 H         -5.3839978235       -2.1224062405       -4.0823215839
 H         -6.5819589684       -0.7381009906       -2.0129988662
 H         -7.0683486715        0.6972102926       -0.0636849536
 H         -7.2079388029        2.1592102516        1.8253305183
 H         -6.9931755655        3.8221021781        3.6310324228
 H         -4.8193142746        4.8606174662        4.1207446099
 H         -2.8166178770        4.2459332191        2.8077735845
