90
 energy: -141.965064323692 gnorm: 0.000092787805 xtb: 6.7.1 (edcfbbe)
C            7.08826798463406       -3.60452889264260       -2.41100931245072
C            6.47839353559046       -3.43092292447328       -1.17847483606000
C            6.74675311551071       -2.30891879107311       -0.41940762456364
C            7.62481016494420       -1.33877913118660       -0.90037589781504
N            7.90989460023268       -0.20488228458533       -0.13024134270608
C            7.02065048475927        0.60758951740810        0.56458783808124
C            5.59362439039070        0.59851887778332        0.40374698359167
C            4.94626271826516        0.14229546184148       -0.75846958468630
C            3.57526086757365        0.16556421317940       -0.85029145043536
C            2.80675051622340        0.65461733434435        0.20727068365813
N            1.38939138649683        0.65649956813709        0.11438718150524
C            0.71239622264708       -0.53889101322378        0.09208417496261
C            1.37961267003052       -1.76259862198404        0.21625256312537
C            0.69500774071753       -2.95124679794009        0.13083529604194
C           -0.68889427144534       -2.95209439544010       -0.09574127072479
C           -1.37520289086704       -1.76416298768273       -0.17987192685371
C           -0.70987741064145       -0.53985314311144       -0.05375364592068
N           -1.38797224353853        0.65501533827036       -0.07589837925432
C           -2.80457176798089        0.65267973305268       -0.17983204750981
C           -3.42585417854733        1.15014006219615       -1.33021500853610
C           -4.79338201425326        1.12426336421740       -1.43368575332766
C           -5.58952666292891        0.59544977753426       -0.40049788088973
C           -7.01510404685099        0.60338548267576       -0.57411655397484
N           -7.62648209509162        1.45632111621969       -1.37016126617310
C           -8.95910830746162        1.22758826246077       -1.22659431419606
C          -10.04840362832138        1.84632828677277       -1.83582726346636
C          -11.30871301788076        1.38915074488423       -1.51451175751587
C          -11.50029507903913        0.33592797865194       -0.61928128376311
C          -10.43463473254334       -0.29091343997988        0.00114919412004
C           -9.16730664003591        0.17641041486621       -0.29839331061753
N           -7.90949284478163       -0.21354708820447        0.10871442075717
C           -7.62963115692225       -1.34928955945064        0.87799790151279
C           -8.25436451376406       -1.52980831574468        2.10880484008852
C           -7.99025895296315       -2.66326307933661        2.85531855762445
C           -7.10295289916597       -3.61838385261339        2.38711679926234
C           -6.48071103071213       -3.43932168986649        1.16156545639032
C           -6.74410604089568       -2.31566874807371        0.40319123216140
C           -4.95202454662670        0.13713106755981        0.76627232036286
C           -3.58184773502566        0.16107041721374        0.87008423775011
C           -0.71409068393289        1.85032159290320       -0.00304120856295
C           -1.39298255573041        3.07337794140758        0.03278316951628
C           -0.70267850316932        4.26185153169787        0.04455834870170
C            0.69861616072960        4.26303156278580        0.00815938772754
C            1.39085248403194        3.07549017223451        0.01541192280391
C            0.71400947577051        1.85139697562040        0.04733599274905
C            3.43763921437910        1.14943932191144        1.35357318200123
C            4.80606082449581        1.12414460001644        1.44512433267367
N            7.63819210907211        1.45814107724256        1.35848794130737
C            8.96975334008591        1.23232846020587        1.20122085106711
C           10.06381885701378        1.85027155048882        1.80268558358927
C           11.32177146353741        1.39685722878940        1.46710362270295
C           11.50657296629178        0.34809560342207        0.56523227187821
C           10.43605828463170       -0.27796005123525       -0.04759241617040
C            9.17086292428602        0.18559366765112        0.26644189198197
C            8.23711997150193       -1.51380783768036       -2.13818867351150
C            7.96811189550531       -2.64560644142629       -2.88547933921771
H            6.87908962439473       -4.48524042653243       -2.99912019823891
H            5.79657508954407       -4.17941094290818       -0.80248909853485
H            6.28391241345688       -2.17202327315144        0.54689121581887
H            5.52306942470995       -0.20278008166332       -1.60195657989011
H            3.08161965607742       -0.17997060576660       -1.74714845685407
H            2.44544507997424       -1.76316795601070        0.37948191637479
H            1.22509610921659       -3.88486012542239        0.22908427233695
H           -1.21771795106723       -3.88630177065276       -0.19503716335989
H           -2.44099273229808       -1.76626759025984       -0.34330504192928
H           -2.81755968175317        1.53858552614511       -2.13391855003577
H           -5.29169177303793        1.50094746783615       -2.31206495620571
H           -9.89527513448206        2.65107767017105       -2.53668976999145
H          -12.17359211041457        1.84909938377607       -1.97018914492945
H          -12.50489200306692        0.00102831886038       -0.40673473481583
H          -10.58911539707116       -1.11449576226629        0.68260178294833
H           -8.92969900385289       -0.77265458557562        2.47854679536546
H           -8.47568534235685       -2.79803662124618        3.81062636583684
H           -6.89758849605812       -4.50037293873830        2.97465378050269
H           -5.79302233532709       -4.18484659392274        0.79041175572769
H           -6.27161639498719       -2.17462894929749       -0.55782473014053
H           -5.53598362910445       -0.21020565479214        1.60390353273219
H           -3.09580740816720       -0.18596464741245        1.77050086107535
H           -2.47105115070377        3.07420004021308        0.05007847915506
H           -1.24195117639199        5.19488124772768        0.07190754599640
H            1.23644700514062        5.19697553726415       -0.01577105832313
H            2.46889849071644        3.07829561333561       -0.00228119299130
H            2.83612567297074        1.53533213522398        2.16358339256216
H            5.31171730583151        1.49895895001619        2.32010241014416
H            9.91607986174600        2.65157805228984        2.50863355961858
H           12.19020096305460        1.85632507313984        1.91647119578328
H           12.50967075041818        0.01611539122962        0.34131894400178
H           10.58537360700022       -1.09811148706522       -0.73431732583411
H            8.90662317140039       -0.75375168873713       -2.51255698190063
H            8.44383290292552       -2.77611964487420       -3.84624603800441
