90
 energy: -142.040582007109 gnorm: 0.000041056102 xtb: 6.7.1 (edcfbbe)
C            6.59660352175757       -3.89708723785692       -1.75355636407869
C            5.99658599974810       -3.45288271286695       -0.58632128615031
C            6.40058895716179       -2.26736960366779       -0.00264033026514
C            7.40400633020810       -1.50976290174558       -0.59996062271289
N            7.81262757387694       -0.30075993720709       -0.01568574161689
C            7.01138501101968        0.72229998031993        0.45402618735847
C            5.57064381475073        0.76567030194268        0.26264047383880
C            4.96587560589337        0.29667668841739       -0.90305506028408
C            3.59346575897705        0.33441814213943       -1.03816093222505
C            2.79914769890634        0.83804697289571       -0.01167428771254
N            1.39258492007989        0.83467074693823       -0.13341775424491
C            0.70375307136137       -0.37801158117544       -0.16927026167320
C            1.37351954516315       -1.59176708383323       -0.10717055334750
C            0.68531231776498       -2.79494116155010       -0.18357921303335
C           -0.68404172116536       -2.79237678618967       -0.33050869778882
C           -1.37174079348964       -1.58695241778068       -0.35743589638738
C           -0.70144756747077       -0.37715868321637       -0.24448073270802
N           -1.39593986497196        0.83266938462019       -0.22819921223926
C           -2.80784302870510        0.82285221433261       -0.23923626746123
C           -3.51168489371615        1.33945334183747       -1.32429140299603
C           -4.89038509080654        1.30381507286874       -1.33516109977989
C           -5.59236998260232        0.73745111503082       -0.27160272201360
C           -7.04478807419861        0.69760425191839       -0.32938321074548
N           -7.77273681621984        1.64760377060337       -0.84829833717787
C           -9.07477709261560        1.26836199437461       -0.67374946622973
C          -10.25462559960031        1.90644140403943       -1.04076692678859
C          -11.44268131799768        1.27187133331184       -0.74796460649708
C          -11.47248413954379        0.02728921324699       -0.11509145251116
C          -10.31408084371941       -0.62362514887604        0.25957303837614
C           -9.11656192242024        0.01757438284921       -0.01272587551392
N           -7.80098915636881       -0.33131144237432        0.19863267624909
C           -7.34230525331495       -1.55138622266779        0.71920491859258
C           -7.83188292793781       -2.01720870949016        1.93448101039704
C           -7.37836573978607       -3.22201690388859        2.44073720371919
C           -6.43498404470023       -3.96040817677489        1.74653774468858
C           -5.94863306159649       -3.49579399977466        0.53519391488792
C           -6.40329505023052       -2.29932084559777        0.01461143503779
C           -4.88555313365034        0.24986865610101        0.82739041370052
C           -3.50721825892883        0.29354766230612        0.84214195434074
C           -0.70676313994176        2.04639273866085       -0.19006089033916
C           -1.38167070784488        3.25750486114988       -0.14411694894621
C           -0.69037848344638        4.46109729809048       -0.14929820075188
C            0.68601074001458        4.46087191120068       -0.20939257332781
C            1.37562195406265        3.25644935651811       -0.21675334209515
C            0.69905133171036        2.04625503598716       -0.17162484896529
C            3.40308631310653        1.34370036614438        1.13723798292694
C            4.77520630854318        1.31426160928715        1.26845378974792
N            7.68794601734440        1.66019857837177        1.05759063814460
C            8.99967936174905        1.27804620642797        1.00455531740483
C           10.13960524160327        1.90361762004088        1.49760456225975
C           11.34851241109765        1.26768157194612        1.31318571951591
C           11.43642716444343        0.03393287819031        0.66469556871849
C           10.31857189843325       -0.60427746077888        0.16561684964798
C            9.10224177268179        0.03841852823761        0.32932115060553
C            8.00771450143987       -1.95518777444262       -1.77071578010417
C            7.60344854216762       -3.14926072279441       -2.34017535327889
H            6.28031578852454       -4.82534765265219       -2.20452883728977
H            5.21452228134415       -4.03585929204810       -0.12353683541601
H            5.94452604407015       -1.92065476075222        0.91289809249776
H            5.56873464432810       -0.07994382625744       -1.71582004289047
H            3.12509137516563       -0.02707542170452       -1.94162822400856
H            2.44632007746463       -1.60437296282813        0.00442139211243
H            1.23310781182768       -3.72342366224692       -0.13529075281565
H           -1.23152069962075       -3.71826807893523       -0.41662844760752
H           -2.44505386934898       -1.59290757109191       -0.46583102736129
H           -2.96789137066075        1.76048922980130       -2.15688194677776
H           -5.44754536007890        1.69996565766253       -2.16943866266557
H          -10.22550581612550        2.86126972450124       -1.54022893675321
H          -12.37730998301585        1.74057789393177       -1.01852251701152
H          -12.42654751854815       -0.43774920297390        0.08446407557510
H          -10.34190788602762       -1.59191238662307        0.73696401654843
H           -8.55163404992179       -1.42635340159336        2.48138516890025
H           -7.75928489731324       -3.58080511760540        3.38529550063223
H           -6.07960449253364       -4.89713675184835        2.14818674962296
H           -5.21635364076662       -4.07119216982957       -0.01097269533207
H           -6.03635998577657       -1.93639119342084       -0.93409586229657
H           -5.41303128596862       -0.14436649609312        1.68302204723209
H           -2.95926272929048       -0.08372898012271        1.69289198563464
H           -2.45923641223230        3.26684370507401       -0.09995447922256
H           -1.24099836870527        5.38823941643885       -0.11499382914768
H            1.23730072398543        5.38766884090005       -0.24132692948905
H            2.45351964195841        3.26293861251518       -0.25706610975362
H            2.78580891268588        1.75162239226182        1.92389683800473
H            5.25518035309299        1.69955004867145        2.15416996118202
H           10.06443711259996        2.84982807379391        2.00853539116261
H           12.25332880111616        1.72652722533958        1.68357836554531
H           12.40385126352281       -0.43287501864822        0.55289821454756
H           10.39007835487945       -1.56449235446028       -0.32340601784231
H            8.77780130129775       -1.35689868936035       -2.23469628311048
H            8.07310271209838       -3.49218753101125       -3.25002902535227
