  90
       -142.04045417
 C          6.6685690933       -3.8494628375       -1.8714090821
 C          6.0392554812       -3.4546575172       -0.7017839297
 C          6.4145997311       -2.2849744197       -0.0690619076
 C          7.4191286702       -1.4937075395       -0.6189027311
 N          7.8037838746       -0.3032646435        0.0178829547
 C          6.9879352971        0.6984934195        0.5072561116
 C          5.5516020754        0.7488082119        0.2886759351
 C          4.9648329591        0.3010071376       -0.8944348868
 C          3.5949128497        0.3470224940       -1.0520806565
 C          2.7856241201        0.8399356798       -0.0322943545
 N          1.3809210292        0.8432467734       -0.1757242329
 C          0.6880802282       -0.3659716465       -0.2309516992
 C          1.3515813292       -1.5835085780       -0.1768126657
 C          0.6580263881       -2.7822789596       -0.2725830220
 C         -0.7098167674       -2.7713984141       -0.4322106610
 C         -1.3915387690       -1.5623935025       -0.4510550644
 C         -0.7162859545       -0.3576195846       -0.3172129276
 N         -1.4059304079        0.8549218616       -0.2901279243
 C         -2.8178663930        0.8452575446       -0.2796774749
 C         -3.5409129041        1.3632306768       -1.3511807746
 C         -4.9195673096        1.3200686235       -1.3404476329
 C         -5.6017972426        0.7452253512       -0.2686736887
 C         -7.0544468809        0.6935840038       -0.3058830072
 N         -7.7977889858        1.6374675775       -0.8140817779
 C         -9.0938785919        1.2460915007       -0.6230895883
 C        -10.2842443497        1.8729962077       -0.9750643003
 C        -11.4624169360        1.2264873484       -0.6685991994
 C        -11.4724707592       -0.0187692588       -0.0364279190
 C        -10.3033362565       -0.6586127113        0.3237111969
 C         -9.1155538181       -0.0055936216        0.0372156870
 N         -7.7942788224       -0.3426538996        0.2309510149
 C         -7.3183543520       -1.5592316417        0.7444790821
 C         -7.7843925039       -2.0277572253        1.9678747356
 C         -7.3138271589       -3.2289669278        2.4671914367
 C         -6.3771288043       -3.9611852219        1.7576358717
 C         -5.9144852176       -3.4940262528        0.5380027251
 C         -6.3860562087       -2.3010132185        0.0246264562
 C         -4.8755008079        0.2582269418        0.8178980154
 C         -3.4975235884        0.3088817198        0.8108660454
 C         -0.7120128393        2.0656507732       -0.2487853833
 C         -1.3805244109        3.2804484214       -0.2092547654
 C         -0.6822561006        4.4801236542       -0.2097378201
 C          0.6945360608        4.4724756240       -0.2586017933
 C          1.3775908497        3.2642588813       -0.2598949298
 C          0.6936947634        2.0581282771       -0.2201108394
 C          3.3719513817        1.3272091010        1.1334998240
 C          4.7411961309        1.2874788964        1.2883245467
 N          7.6475671959        1.6154831768        1.1607127299
 C          8.9612572661        1.2397687990        1.1236675773
 C         10.0875159600        1.8487517921        1.6667938424
 C         11.3022390099        1.2228279048        1.4871126845
 C         11.4094670932        0.0147701318        0.7944918237
 C         10.3057271451       -0.6064623047        0.2452921064
 C          9.0839141083        0.0269130636        0.4047838504
 C          8.0515073181       -1.8890158481       -1.7924379862
 C          7.6753708314       -3.0674752761       -2.4116303319
 H          6.3748136328       -4.7657960700       -2.3604226919
 H          5.2564946738       -4.0640622948       -0.2758770425
 H          5.9358124855       -1.9765182778        0.8486164982
 H          5.5792945320       -0.0656133568       -1.7029876607
 H          3.1404699700        0.0005181930       -1.9684427477
 H          2.4230777286       -1.6025742168       -0.0559658354
 H          1.2007720010       -3.7139404982       -0.2290401966
 H         -1.2607585493       -3.6935660948       -0.5338887862
 H         -2.4639450988       -1.5614579138       -0.5684327997
 H         -3.0125833856        1.7890621226       -2.1912393365
 H         -5.4919466643        1.7160522824       -2.1644546927
 H        -10.2705240875        2.8285001441       -1.4738816525
 H        -12.4047637586        1.6862110855       -0.9275972855
 H        -12.4194933522       -0.4933778852        0.1738205779
 H        -10.3157338594       -1.6273968731        0.8007720329
 H         -8.4992100224       -1.4417300771        2.5263651453
 H         -7.6760802975       -3.5896311751        3.4183680593
 H         -6.0082797222       -4.8949948944        2.1539192843
 H         -5.1874136353       -4.0646248672       -0.0199576258
 H         -6.0376082327       -1.9358981774       -0.9301777523
 H         -5.3873796171       -0.1420606135        1.6801352038
 H         -2.9339020932       -0.0703193615        1.6504672995
 H         -2.4582434251        3.2958765409       -0.1723174534
 H         -1.2279649501        5.4103946758       -0.1809361938
 H          1.2510662316        5.3963089421       -0.2862901628
 H          2.4559157110        3.2640321262       -0.2900161379
 H          2.7428951297        1.7282663109        1.9143299610
 H          5.2081686088        1.6571914924        2.1874314982
 H          9.9976129201        2.7744220841        2.2117933774
 H         12.1966804779        1.6690982049        1.8960852430
 H         12.3808813798       -0.4450763102        0.6877680334
 H         10.3912864455       -1.5472846976       -0.2779784964
 H          8.8219484638       -1.2643829653       -2.2197076282
 H          8.1674868143       -3.3715396937       -3.3233653200
