90
 energy: -142.040606436535 gnorm: 0.000052511409 xtb: 6.7.1 (edcfbbe)
C            6.60236940134186       -3.74372350750555       -1.79519049720332
C            6.02991489530409       -3.33148538208265       -0.60263825197976
C            6.43489255038986       -2.15275749512553       -0.00595820572947
C            7.41107893569168       -1.36973122173231       -0.61539248221637
N            7.82312312845286       -0.16856640532141       -0.01734738471387
C            7.02776705012433        0.83813872300071        0.49576046473277
C            5.58187114216624        0.87764371151170        0.34785737934443
C            4.94234378475473        0.41529601008323       -0.80197038931435
C            3.56666301164448        0.45523468567138       -0.89604619403733
C            2.80345343736588        0.95679713219387        0.15472067658368
N            1.39389244960937        0.95912401517501        0.06806762187518
C            0.70331313497373       -0.25274018082359        0.04653088854593
C            1.37334524788326       -1.46445658347499        0.13710700975371
C            0.68673421729581       -2.66936837139611        0.07512697000277
C           -0.68108344284228       -2.66988448654083       -0.08506491414234
C           -1.36933602709473       -1.46560880824820       -0.14106644516411
C           -0.70097165054227       -0.25344086001722       -0.04443272369170
N           -1.39309316851661        0.95764737807014       -0.06004856945771
C           -2.80253514071089        0.95445502570977       -0.14801102187814
C           -3.43942560920754        1.45831732879054       -1.27956456172023
C           -4.81483262644804        1.42585279822797       -1.37173448117492
C           -5.58090289227310        0.87709617607949       -0.34331413904926
C           -7.02686493213339        0.84058624888488       -0.49136184546275
N           -7.71269980459337        1.77794830095781       -1.08576536490704
C           -9.02573675016841        1.40988496411710       -0.98846830385584
C          -10.17418386404158        2.04120377333740       -1.45384307460413
C          -11.38300815604588        1.41996739883451       -1.22448341849607
C          -11.46303384244445        0.19485208483618       -0.55875288357057
C          -10.33666346544783       -0.44878597324764       -0.08659434490465
C           -9.11970400448226        0.17962354915734       -0.29521162788517
N           -7.82358282898503       -0.16853816581234        0.01477672740454
C           -7.41275513369210       -1.37450677849391        0.60390789515784
C           -7.98740169506646       -1.79498740064609        1.79833453704460
C           -7.58341016254083       -2.98697751501499        2.37229055811610
C           -6.60549172116952       -3.75748412063432        1.76638871778721
C           -6.03419949094961       -3.33792880286193        0.57583383002186
C           -6.43842359270953       -2.15460768631464       -0.01220072644594
C           -4.94207431921338        0.40653362097092        0.80356057650946
C           -3.56644265924695        0.44567472954615        0.89877381336997
C           -0.70309471126787        2.17058090482253       -0.01136417479235
C           -1.38023064910509        3.38062860640956        0.02671919402489
C           -0.69040125778117        4.58509271445703        0.03357352711743
C            0.68671756332681        4.58607658511496       -0.00522059466936
C            1.37805132945198        3.38245799783964       -0.00500027507155
C            0.70239483693669        2.17138773289451        0.02618093869592
C            3.44105648773388        1.45347678396503        1.28901962651507
C            4.81652274498798        1.42005524147191        1.38018250823821
N            7.71481272188443        1.76991044542349        1.09751210930105
C            9.02728134640241        1.40029274169560        0.99846186799986
C           10.17646442051960        2.02600113730293        1.46957325743775
C           11.38435330379952        1.40424861341294        1.23671266594747
C           11.46273942596350        0.18399728669320        0.56191676559524
C           10.33562079396183       -0.45401778414805        0.08396047683324
C            9.11961891982997        0.17505317150401        0.29616866726206
C            7.98673659273936       -1.78277950696041       -1.81192859397267
C            7.58208542726291       -2.97035749674706       -2.39450089164005
H            6.28567306610960       -4.66694915722566       -2.25611084916598
H            5.26883551501335       -3.93434089575265       -0.13047215603681
H            6.00047031015614       -1.83070929062658        0.92890855667411
H            5.52009127976593        0.04281282401346       -1.63456247784095
H            3.07100355147921        0.09679433397009       -1.78609571694941
H            2.44528367167546       -1.47305311195401        0.25765857445430
H            1.23432089288922       -3.59656732020520        0.14522419047192
H           -1.22741962210699       -3.59746292932557       -0.15973618934283
H           -2.44124750968433       -1.47509188835891       -0.26178415054854
H           -2.84562145115927        1.86742629560675       -2.08346251035094
H           -5.32057670215035        1.81071966099953       -2.24317187426067
H          -10.10558110718918        2.98052579427907       -1.97822948151861
H          -12.29430526723627        1.88370155541500       -1.57221375737175
H          -12.43110489523276       -0.26068217896933       -0.41160503468703
H          -10.40248793290235       -1.40237712451926        0.41601421107457
H           -8.73464221385551       -1.17913971315366        2.27650208003494
H           -8.03049466223554       -3.31050054210944        3.30044552513751
H           -6.28926968039630       -4.68417014699984        2.22064190447595
H           -5.27460103679889       -3.93857047667817        0.09848726475730
H           -6.00482866729685       -1.82668810033271       -0.94541085868694
H           -5.52035624606937        0.02845499678660        1.63325708704741
H           -3.07143642628082        0.08135262096476        1.78679799951660
H           -2.45851728003296        3.38762923372006        0.05266000442098
H           -1.24235866166251        5.51168298614347        0.06042797016747
H            1.23748058692054        5.51351057592478       -0.02697138457148
H            2.45633575881263        3.39086742119304       -0.03077344689887
H            2.84779685714715        1.85733785053964        2.09596717836316
H            5.32288378039480        1.79893268706060        2.25388473059157
H           10.10911096945531        2.96149588609079        2.00091625094475
H           12.29618425463120        1.86368920078419        1.58871536636231
H           12.43009705544271       -0.27223321367306        0.41225518896204
H           10.40016998314186       -1.40400172956949       -0.42559253541695
H            8.73535610736665       -1.16462858473379       -2.28493582343145
H            8.03012201881958       -3.28817260447261       -3.32416872585315
