  40
        -70.20390985
 C          5.7092189099        1.9350236995       -0.5435988009
 C          4.5876439467        0.9869536132       -0.2788556456
 C          3.2803243766        1.2749438322       -0.4307420796
 C          2.3028610846        0.2673069692       -0.1466407871
 N          1.0134179419        0.5477067595       -0.3132601434
 C          0.1040842491       -0.3833087341       -0.0567453607
 N         -1.2152812637       -0.0470030864       -0.2280631176
 C         -1.7017408441        1.2788853049       -0.1255383157
 C         -1.0244231067        2.3895770776       -0.6076561654
 C         -1.5383569133        3.6607368216       -0.4080493958
 C         -2.7383768001        3.8388183995        0.2550931892
 C         -3.4472204078        2.7367357236        0.6998433639
 C         -2.9365245915        1.4636705787        0.5070165350
 O         -3.6952243829        0.4040292232        0.9451987066
 C         -3.4486345206       -0.7860941991        0.3178177525
 C         -4.4512516731       -1.7436646611        0.2956971136
 C         -4.2491853046       -2.9360493336       -0.3761030515
 C         -3.0652279614       -3.1540309521       -1.0599094337
 C         -2.0607737410       -2.2025625255       -1.0356661877
 C         -2.2240646344       -1.0295698864       -0.3086393282
 C          0.4639736156       -1.6656791830        0.4291826037
 C          1.7887539487       -1.9607969475        0.5968856262
 C          2.7558173128       -0.9910111307        0.2894732900
 C          4.1735949395       -1.2563522569        0.4381936750
 O          4.6631279589       -2.3026989956        0.8032447059
 O          5.0226407356       -0.2245849174        0.1360431948
 H          6.3310349490        2.0264800536        0.3454376805
 H          6.3378467603        1.5468285660       -1.3439331761
 H          5.3266032420        2.9106336203       -0.8245964112
 H          2.9515955330        2.2445118873       -0.7606111462
 H         -0.0858679803        2.2497949644       -1.1136899495
 H         -0.9917733364        4.5150990347       -0.7763928248
 H         -3.1336781544        4.8295347315        0.4164109880
 H         -4.3945677662        2.8381776334        1.2046647828
 H         -5.3747408446       -1.5343404857        0.8111051040
 H         -5.0246736944       -3.6856947616       -0.3810488631
 H         -2.9179499089       -4.0682545331       -1.6133104063
 H         -1.1393243760       -2.3671660012       -1.5733229764
 H         -0.2958910071       -2.3800465753        0.7003943698
 H          2.1130245533       -2.9181361249        0.9755426566
