40
 energy: -70.148717095941 gnorm: 0.000068458431 xtb: 6.7.1 (edcfbbe)
C            5.67158728895866        1.41972957221465       -1.50270819759589
C            4.56011346312421        0.72257730139265       -0.78769990123736
C            3.25274757137225        0.96900577703238       -0.99644920438864
C            2.26050829797281        0.24375494023725       -0.25372256941383
N            0.98888146164757        0.46122568002866       -0.47845342687157
C            0.05643260360331       -0.24524061725403        0.20509549925404
N           -1.29975498398195        0.03920976884362       -0.03105146559358
C           -1.80850518335543        1.30866813929437        0.19094379647599
C           -0.98934561009505        2.40555656169177        0.47104228965331
C           -1.54112736948488        3.65099894246066        0.69424699335305
C           -2.91997813059277        3.83143143628118        0.66356725481829
C           -3.75147707849101        2.75904342699287        0.40417199649788
C           -3.20717733531735        1.50240554548108        0.16356488417492
O           -4.07015095541160        0.48408145286405       -0.07648602816575
C           -3.56080736183551       -0.73817425318126       -0.37433546444612
C           -4.45484208379845       -1.75411637148069       -0.67946197426597
C           -3.98401805740905       -3.00740765696699       -1.02577426804644
C           -2.61062308087874       -3.24107698836742       -1.08828156997698
C           -1.71302184142846       -2.24573263482777       -0.77489204059634
C           -2.16474986370851       -0.97549124277370       -0.38736231541738
C            0.41338276383177       -1.21243353783035        1.16504815577909
C            1.73446275716915       -1.45787845042564        1.41120950645463
C            2.73162263192907       -0.72500657886711        0.68717477925015
C            4.11077010711105       -0.95300523193005        0.87306593848170
O            4.62963955634907       -1.74807453689995        1.66526551606184
O            5.00604176229482       -0.19029056167292        0.10082203134846
H            6.32291840222421        1.90697553718655       -0.77884642710671
H            6.27243281061148        0.69007195135801       -2.04342813391939
H            5.27613778823882        2.15469234779201       -2.19532126476965
H            2.93011786506464        1.69666435469616       -1.72047815976735
H            0.07834922390750        2.26775171513596        0.49515666158929
H           -0.89149598356806        4.48632260626800        0.90198827365564
H           -3.34402270720632        4.80502944074166        0.85033016272463
H           -4.82421023053524        2.86347911192506        0.38539424770636
H           -5.50987557466832       -1.53498884665160       -0.64678437799217
H           -4.67928248409196       -3.79647071426164       -1.26175002634291
H           -2.24297802580322       -4.20994837509437       -1.38716803106269
H           -0.65173645541363       -2.42614059102941       -0.83471696901368
H           -0.36558086755199       -1.71312737621111        1.72073962614625
H            2.05946291804445       -2.18565894591177        2.13720951634857
