40
 energy: -70.233546170312 gnorm: 0.000040544380 xtb: 6.7.1 (edcfbbe)
C            5.70494894035260        1.95263753570238       -0.52055774311331
C            4.58781161355568        0.99887906293380       -0.26680877818483
C            3.27830883238529        1.28399821758327       -0.41027958332492
C            2.30426633948178        0.27074205799322       -0.13680920579204
N            1.01365119939581        0.54900579999670       -0.29717236735819
C            0.10542026585028       -0.38983820837100       -0.05826039432367
N           -1.21079004213524       -0.05660022379934       -0.23070692099162
C           -1.69720252733023        1.27168255564228       -0.13485116143607
C           -1.03029842943635        2.37731357793742       -0.64263058314383
C           -1.53919183960144        3.65057660970071       -0.44271142768407
C           -2.72394223065271        3.83431451313083        0.24711454530693
C           -3.42497402449241        2.73649838605489        0.71521817450671
C           -2.91949039864833        1.46095000229704        0.52018499147047
O           -3.67080648465641        0.40138149716417        0.97602998143561
C           -3.44141883291786       -0.78862076962734        0.33677885316662
C           -4.45253193016809       -1.73815566205197        0.31649193953980
C           -4.26572750289564       -2.92686555462803       -0.36679684581416
C           -3.08909819895212       -3.14976987600591       -1.06265532119356
C           -2.07700644919085       -2.20600556108105       -1.04139496841340
C           -2.22554155285695       -1.03662204925026       -0.30494300545301
C            0.47097592611387       -1.67949839389153        0.41170252882992
C            1.79541630896707       -1.97094736922966        0.57947990400950
C            2.76109410441292       -0.99330351298063        0.28279783601338
C            4.17517620488741       -1.25346546193730        0.42391597080508
O            4.67128502790388       -2.30737655945966        0.77652265580384
O            5.02456413076699       -0.22189014118775        0.13337628996671
H            6.29541714792524        2.07659363367012        0.38578678257524
H            6.36495363827869        1.54952342708942       -1.28698147611637
H            5.31721144530159        2.91366946094259       -0.83943508082943
H            2.94698051639162        2.25688427236897       -0.72637097019953
H           -0.10357416000428        2.23125751054152       -1.16781785936163
H           -1.00026462286007        4.50096255898733       -0.83040971757985
H           -3.11448656331053        4.82644706686227        0.41134554117204
H           -4.36210867033210        2.84372068922104        1.23826974176975
H           -5.37070173086445       -1.52569678029415        0.84062636910114
H           -5.04897332531938       -3.66842900763597       -0.37176217916872
H           -2.95407391894138       -4.06010153291367       -1.62551423035766
H           -1.16179275342042       -2.37338267786329       -1.58878296416205
H           -0.28655140136521       -2.40076851638226        0.67040572012585
H            2.12389537478851       -2.93129292668382        0.94847350113221
