  40
        -70.11500174
 C          5.6455250672       -1.4339554440        1.6938349526
 C          4.5614207374       -0.7449356047        0.9301761190
 C          3.2453716451       -0.9674891993        1.1212271376
 C          2.2828705226       -0.2497813167        0.3366336028
 N          1.0010905551       -0.4367636235        0.5446041502
 C          0.0974211743        0.2673412586       -0.1731032085
 N         -1.2676484899        0.0272375683        0.0459517619
 C         -2.1187850163        1.0844109863        0.2837438317
 C         -1.6525461485        2.3632247956        0.6313049264
 C         -2.5320760049        3.4026058198        0.8117262374
 C         -3.9079500076        3.2112879539        0.6485162126
 C         -4.3959213983        1.9538345088        0.3434886149
 C         -3.5224519818        0.8914381782        0.1773135976
 O         -4.0493412156       -0.3332222825       -0.0804342982
 C         -3.2060875133       -1.3904212098       -0.1755822635
 C         -3.7739573294       -2.6469219388       -0.3653323606
 C         -2.9653243749       -3.7595410659       -0.4751089836
 C         -1.5812057774       -3.6239147971       -0.4099544878
 C         -1.0044541431       -2.3807032422       -0.2423998281
 C         -1.8016075570       -1.2430983733       -0.1095905518
 C          0.4905242593        1.2022051205       -1.1506105897
 C          1.8212148021        1.4124316486       -1.3798723889
 C          2.7857309151        0.6827679322       -0.6188749227
 C          4.1826338537        0.8845927846       -0.7857587060
 O          4.7223729298        1.6421354682       -1.5839156450
 O          5.0371273075        0.1265575126        0.0270266223
 H          6.3143039354       -1.9438858188        1.0026963924
 H          6.2360949670       -0.6974809595        2.2365067626
 H          5.2264914188       -2.1501276213        2.3929036064
 H          2.8957503645       -1.6648070805        1.8624206657
 H         -0.5931107276        2.5106972507        0.7684122991
 H         -2.1558429117        4.3761066050        1.0839044309
 H         -4.5886038458        4.0366713782        0.7777172186
 H         -5.4529652888        1.7683648092        0.2396793926
 H         -4.8481565591       -2.7168804220       -0.4242470998
 H         -3.4085142007       -4.7321509348       -0.6192049653
 H         -0.9493864626       -4.4931091238       -0.5005211713
 H          0.0664695723       -2.2761509094       -0.1930630828
 H         -0.2699088406        1.7004568773       -1.7336190483
 H          2.1714719913        2.1119434777       -2.1200777291
