66
 energy: -114.942515688120 gnorm: 0.000056826608 xtb: 6.7.1 (edcfbbe)
O           -1.10672017349037        2.75783294397520       -3.34738738340841
S            0.11544407118635        2.61130009876333       -2.57035375621445
O            1.37353550178447        2.66624350869721       -3.29901692243375
C            0.13245985282854        3.82410911796318       -1.29020193480108
C           -1.06722026474814        4.33376183064726       -0.77062124855758
C           -1.00640036259946        5.11811436535172        0.36139546068925
C            0.23543894360075        5.35414138805434        0.94690287430990
N            1.37993444510074        4.86114776776887        0.45723232434284
C            1.32236959455838        4.11780496555939       -0.62301757802469
C            0.04790733049592        1.11554029212054       -1.65672524775280
C            1.24217382514179        0.55055014507391       -1.17489782046275
C            1.19172758907833       -0.47154503458465       -0.25904140176433
N            2.39272033874123       -1.05531580103288        0.22559040731909
C            3.23349140868804       -0.33718282336398        1.05909740238606
C            2.93836771882229        0.95921824453301        1.48118685105188
C            3.80697650595199        1.64300338542347        2.30952170694904
C            4.98532178859702        1.04760209754360        2.74089668891828
C            5.28814297724714       -0.24457611971782        2.35053079474599
C            4.42175350944099       -0.93977988644169        1.52039022755764
O            4.76419020664395       -2.21587732829116        1.18163104707370
C            3.93034044539615       -2.90709275922354        0.35339153106100
C            4.29810357457545       -4.19857417946218        0.00466979911614
C            3.49987244810561       -4.93925559166627       -0.84861875462420
C            2.33949883986935       -4.38188404165255       -1.36881453430874
C            1.96568024577005       -3.09630227979298       -1.02781286464508
C            2.74180139253459       -2.34152216977965       -0.14882602850795
C           -0.03879645208396       -0.95943118214391        0.22329752322954
C           -1.22254844407020       -0.37187112887734       -0.26056719406909
N           -2.46992777407416       -0.85736932939828        0.21960962690540
C           -2.96228192558572       -2.07182395505997       -0.22492541139533
C           -2.27410954825260       -2.85913131197646       -1.14682197169911
C           -2.79052987462647       -4.07324247779703       -1.55706510409901
C           -4.00915952642041       -4.52193652877486       -1.06570006037319
C           -4.72006526504937       -3.74448396604124       -0.16866849703131
C           -4.20797773285108       -2.52593634506263        0.25155047880924
O           -4.95788279063301       -1.79270214852298        1.12433893581202
C           -4.46345171676647       -0.59323460130876        1.54645737053677
C           -5.23557629809374        0.14215601875459        2.43280933083606
C           -4.77494831011805        1.35672293835278        2.90931378044882
C           -3.53407783560861        1.83301185549323        2.50661816502300
C           -2.75957668708544        1.11090385161093        1.61912880874960
C           -3.21324566563885       -0.10683801687014        1.11299741109020
C           -1.19025572581403        0.65237502581964       -1.17493318232172
H           -1.99225914142753        4.11452313437313       -1.28167482660749
H           -1.90077002353284        5.54499678937373        0.78916488839559
H            0.33717874453515        5.95989708468441        1.83569171651508
H            2.25803080536040        3.73412763611902       -1.00846344395130
H            2.17633768291518        0.92562459079390       -1.56111835982190
H            2.02695996180957        1.42870666910842        1.14739859587620
H            3.56086200224869        2.64735397221765        2.61527828753683
H            5.66363521662676        1.58606617511322        3.38294375566702
H            6.19022722041737       -0.73716178539461        2.67634656101934
H            5.21357265330420       -4.59717335405971        0.41135709695392
H            3.78842408341939       -5.94348337492132       -1.11450494106925
H            1.72346809808977       -4.94974495644863       -2.04783351255870
H            1.07483394086622       -2.65782800818242       -1.44535759385276
H           -0.07281720088785       -1.75507014338569        0.94761121160105
H           -1.33821338007149       -2.50068412698105       -1.54213893434989
H           -2.24111155001439       -4.66968489872562       -2.26802590135388
H           -4.40996167562270       -5.47003634213200       -1.38649292080229
H           -5.67601066657786       -4.05897596256467        0.21832595142029
H           -6.18953700383779       -0.25880087369362        2.73574476522956
H           -5.37949613587885        1.92558116264079        3.59734367722075
H           -3.16451315849298        2.77178418108031        2.88761550493555
H           -1.79688017613221        1.48275656001612        1.30677588727957
H           -2.09113285602194        1.10378937330846       -1.55836876134297
