  66
       -114.89264679
 O         -1.0743246487        2.9615494741       -3.3018774350
 S          0.1438488976        2.6971053772       -2.5666986014
 O          1.3995791270        2.8124552309       -3.2756143347
 C          0.1830097992        3.6863556249       -1.0946058270
 C         -1.0107722056        4.0929985274       -0.4847144754
 C         -0.9486553747        4.6299716846        0.7835603025
 C          0.2917519692        4.7215786236        1.4108639929
 N          1.4277819740        4.3293376405        0.8301933374
 C          1.3741766537        3.8294653487       -0.3824547113
 C          0.0461284349        1.1178180234       -1.7808095483
 C          1.2292434799        0.5369876852       -1.3008134155
 C          1.1668734970       -0.4793273782       -0.3775780360
 N          2.3652202583       -1.0286520115        0.1450281307
 C          3.2024974532       -0.2389785772        0.9165901573
 C          2.8821609134        1.0733256819        1.2610885834
 C          3.7527084063        1.8377973988        2.0119470662
 C          4.9579428345        1.3034029293        2.4499213092
 C          5.2805630471       -0.0078380569        2.1486840369
 C          4.4131758343       -0.7817071111        1.3930936959
 O          4.7745712279       -2.0734627016        1.1413049829
 C          3.9386898483       -2.8376481680        0.3830596001
 C          4.3244472612       -4.1434950870        0.1203619459
 C          3.5275925559       -4.9582112394       -0.6635342805
 C          2.3478943150       -4.4612998552       -1.2015251699
 C          1.9553444835       -3.1615216298       -0.9466774560
 C          2.7301755193       -2.3320338003       -0.1376990716
 C         -0.0683757920       -0.9536523404        0.0993062615
 C         -1.2427502200       -0.3560484235       -0.3905997007
 N         -2.4927046131       -0.8039045200        0.1107844152
 C         -2.9711826904       -2.0568660407       -0.2249462984
 C         -2.2950800001       -2.8971544493       -1.1078657075
 C         -2.7976137944       -4.1469760071       -1.4124396776
 C         -3.9918250874       -4.5818734356       -0.8499837439
 C         -4.6921941812       -3.7529704160        0.0073156077
 C         -4.1960656692       -2.4964474539        0.3196897826
 O         -4.9367107586       -1.7118714197        1.1527858175
 C         -4.4659827406       -0.4673897699        1.4520794836
 C         -5.2376340436        0.3254531204        2.2872823511
 C         -4.7995688159        1.5870500603        2.6458523837
 C         -3.5780885709        2.0541680537        2.1749247172
 C         -2.8033571054        1.2761232196        1.3376953822
 C         -3.2359089396        0.0087020680        0.9486425021
 C         -1.1959038046        0.6671934626       -1.3069536198
 H         -1.9371850367        3.9893326926       -1.0269484871
 H         -1.8398712802        4.9759844203        1.2846819531
 H          0.3931699200        5.1235236361        2.4083500856
 H          2.3095749701        3.5300756562       -0.8336725763
 H          2.1707002171        0.9075075447       -1.6706588284
 H          1.9483261040        1.4973533982        0.9316272813
 H          3.4808960973        2.8552111764        2.2441083146
 H          5.6406290814        1.9028091776        3.0304986159
 H          6.2010137675       -0.4556779635        2.4874786869
 H          5.2546342197       -4.4949526497        0.5368426310
 H          3.8313656580       -5.9732935472       -0.8628557197
 H          1.7324374916       -5.0873712776       -1.8281053430
 H          1.0486545006       -2.7711038558       -1.3784254831
 H         -0.1136701004       -1.7359636862        0.8384948508
 H         -1.3795527950       -2.5511661719       -1.5591344318
 H         -2.2586014408       -4.7832468772       -2.0965054715
 H         -4.3804772215       -5.5590341498       -1.0874309659
 H         -5.6296320020       -4.0557680381        0.4452496450
 H         -6.1740203462       -0.0705894918        2.6461834179
 H         -5.4033261169        2.2004819811        3.2950584177
 H         -3.2230794848        3.0303870172        2.4643078862
 H         -1.8570029409        1.6464082672        0.9773269382
 H         -2.0923322978        1.1347391949       -1.6790021843
