47
 energy: -67.098032702225 gnorm: 0.000074948073 xtb: 6.7.1 (edcfbbe)
C           -1.54118499679929       -2.23897402679840       -1.42906671096408
C           -1.06484799034368       -1.73993824697973       -0.04023573137503
C           -1.79492743025310       -2.44925858693011        1.13201093401409
C            0.39123224643398       -2.14346690384456        0.02824461391734
C            0.72435417699813       -3.48983214181405        0.06315136462263
C            2.03977137645332       -3.91607323417233        0.08121172462713
C            3.06268295093799       -2.97596122683244        0.05712244272811
C            2.76389875506447       -1.63496357277692        0.02725010690392
C            1.42797636963737       -1.19853351822744        0.01883723144713
N            1.13693994900990        0.14368811485024        0.00751945395916
C            2.22583098343964        1.06416883490684       -0.00909293935474
C            2.79934489396551        1.47987966595017        1.18546109554303
C            3.86094015692849        2.36726352088659        1.16280708111571
C            4.34886651229368        2.83756010165044       -0.04510698178466
C            3.77498760369033        2.42097570786864       -1.23492920047408
C            2.71268641753071        1.53400759534646       -1.22112571700328
C           -0.14092036184510        0.65235342005177        0.03508183108817
C           -0.32759291222096        2.02000167296171        0.07982624398957
C           -1.60124518836563        2.56334143275581        0.09740895822194
C           -2.75112430506950        1.73553384245209        0.05613329758193
C           -4.02032551556489        2.30274012277342        0.05855053929500
C           -5.18247363646748        1.50554572500993        0.01256795995038
C           -5.05227009560576        0.14714372831694       -0.03809215105809
C           -3.77926701156729       -0.45132183041487       -0.04049866148800
C           -2.59140016066542        0.31184607466710        0.00947720825037
C           -1.28818793355970       -0.24841195109526        0.01800528394113
H           -2.54436463303588       -1.89538088381399       -1.65758881550550
H           -0.87217921613369       -1.84982177117401       -2.19540228120425
H           -1.51689041941993       -3.32463348598976       -1.47648185748751
H           -2.48468099541971       -1.77615243702529        1.63131959342600
H           -1.06928941728653       -2.77958095631053        1.87291714338236
H           -2.34638295905553       -3.32012129723684        0.78624467160980
H           -0.06278558717265       -4.22808483790815        0.08053734260795
H            2.26789846096780       -4.97026134087434        0.11004429398673
H            4.09428456512900       -3.29449027497276        0.06342724782746
H            3.56185718746324       -0.90877499040363        0.01036018689798
H            2.40839783159993        1.10639389752898        2.12011184900924
H            4.30688483402912        2.69185414447635        2.09088726292255
H            5.17698511445936        3.52997012227084       -0.05927447891033
H            4.15455019100397        2.78671119948431       -2.17707767481046
H            2.25515473779256        1.20309713996333       -2.14149115450505
H            0.52370383360953        2.68262031741167        0.10218990673458
H           -1.72904427371478        3.63372850880033        0.13593519121309
H           -4.11239527503399        3.37814963274174        0.09654247190226
H           -6.15445443671403        1.97609428628911        0.01726188668290
H           -5.92319871664717       -0.49128887075926       -0.07554840975409
H           -3.75359364620117       -1.52495507749091       -0.07874657003780
