47
 energy: -67.098038537262 gnorm: 0.000052893481 xtb: 6.7.1 (edcfbbe)
C           -1.50447779146900       -2.21106237503225       -1.46747533221244
C           -1.06513194361658       -1.73870435419109       -0.05696662093858
C           -1.82591564978460       -2.46887645630663        1.08161578408640
C            0.38874793620177       -2.14540367610450        0.03570209038618
C            0.71863020596714       -3.49262435221678        0.07007825249429
C            2.03298148039347       -3.92184935119588        0.08925882487424
C            3.05788346162493       -2.98420681935703        0.05836937919071
C            2.76222142193684       -1.64243118663605        0.02791721202448
C            1.42759330040462       -1.20257621063925        0.03041144153750
N            1.13805235061717        0.14038855487730        0.02761909120235
C            2.22483792983535        1.06175145834265       -0.01471091157040
C            2.88820484781417        1.40928044795000        1.15548839838865
C            3.94729976468946        2.29832340014782        1.10384393323634
C            4.34378341409277        2.83888446301408       -0.10800566456123
C            3.68000862322993        2.49100602218744       -1.27330436432136
C            2.61996038047177        1.60265673092427       -1.23049949998528
C           -0.13921099761643        0.64894235065262        0.08025796171466
C           -0.32409761495924        2.01363604448801        0.18520700125292
C           -1.59686096404711        2.55823676570581        0.21114322800056
C           -2.74734105262641        1.73627006468194        0.10842467439566
C           -4.01520815760895        2.30628111610904        0.10877342089673
C           -5.17757256962810        1.51481545295305        0.00659252034033
C           -5.04900015670505        0.15904999464083       -0.09581458868504
C           -3.77753008185689       -0.44220836919842       -0.09668158886805
C           -2.58948871392577        0.31516929312983        0.00780065595037
C           -1.28788666858198       -0.24841807029078        0.02561816579419
H           -2.50427738346044       -1.87022520038949       -1.71378605277700
H           -0.82002951434296       -1.80114329998288       -2.20899064516450
H           -1.47004957071119       -3.29536458150960       -1.53652965047604
H           -2.54068148148687       -1.80967259004984        1.56386679804561
H           -1.12170985201805       -2.79783486044129        1.84348659938752
H           -2.35482001958037       -3.34225874264207        0.70806552874919
H           -0.07026490145127       -4.22904722920066        0.08358043787868
H            2.25871805952892       -4.97652061154239        0.11955063709040
H            4.08874353541008       -3.30516564867687        0.05872244780610
H            3.56215770826662       -0.91880346380192        0.00169241462832
H            2.56856679263973        0.98130329905553        2.09391757561393
H            4.46270094333287        2.56961052975150        2.01291648593645
H            5.17022942936886        3.53243082899983       -0.14469887074275
H            3.98813103826992        2.91139776564621       -2.21869088337162
H            2.09254643252107        1.32583866654822       -2.13113921792657
H            0.52827975565350        2.67221062345343        0.24923319265226
H           -1.72376013483017        3.62572943987592        0.30011582220158
H           -4.10608185944838        3.37932215957031        0.19115090446943
H           -6.14864125392162        1.98720288729181        0.01049134765455
H           -5.92029261187229       -0.47485140110619       -0.17663910285221
H           -3.75302012449778       -1.51353398831244       -0.17817870079119
