  55
        -92.47358518
 O          6.6463003582       -0.8273091853       -1.2838508630
 C          5.6684094145       -0.3357702727       -0.7006329213
 C          5.6385238943        1.0478265137       -0.2423253805
 C          6.7772426458        1.8397709912       -0.4535659676
 C          6.8050870318        3.1512635829       -0.0488914154
 C          5.6914033862        3.7141659169        0.5784899610
 C          4.5666238859        2.9572514471        0.7919027477
 C          4.5197750047        1.6126023072        0.3920981212
 C          3.3041042478        0.8586415111        0.6571646193
 O          2.2979360631        1.3587118477        1.1835434895
 C          3.3558695324       -0.5367480784        0.2471006923
 C          2.2400715973       -1.3365978700        0.5140508633
 C          2.2124422728       -2.6509257225        0.1099412300
 S          0.8126509348       -3.6781760670        0.4795831932
 C         -0.5399345979       -2.5586834645        0.2913397694
 C         -1.6509287187       -2.7195075583        1.1149521392
 C         -2.7237015316       -1.8610486290        1.0050812779
 C         -2.7015994786       -0.8277158387        0.0668372470
 N         -3.7653330080        0.0660180874       -0.0311001465
 C         -5.1065568588       -0.2656999425       -0.0933665890
 C         -5.7085949661       -1.5161421576       -0.1207502938
 C         -7.0868823853       -1.5659148361       -0.2251342427
 C         -7.8508714018       -0.4057800817       -0.3124255699
 C         -7.2534584819        0.8423442589       -0.3158108073
 C         -5.8732227180        0.9166044314       -0.2106419366
 C         -4.9393559606        2.0128250096       -0.2100180961
 C         -5.0872881151        3.3896378571       -0.2766573954
 C         -3.9521347282        4.1793048783       -0.2232310509
 C         -2.6890035256        3.6114460925       -0.0834400887
 C         -2.5170699535        2.2407975530       -0.0139263247
 C         -3.6501466133        1.4433657294       -0.1014910062
 C         -1.5977421904       -0.6927168991       -0.7783308389
 C         -0.5297168074       -1.5546762625       -0.6731901441
 C          3.3213811410       -3.2245680784       -0.5322128764
 C          4.4301805258       -2.4569347645       -0.7699953264
 C          4.4699537709       -1.1000524565       -0.4054273875
 H          7.6218807338        1.3785703221       -0.9432908116
 H          7.6896581400        3.7475217479       -0.2160918365
 H          5.7154741488        4.7453903668        0.8981439026
 H          3.6910446301        3.3647307626        1.2751655217
 H          1.4124501136       -0.8825409925        1.0377060861
 H         -1.6530791480       -3.5051681948        1.8545367051
 H         -3.5651875632       -1.9584318990        1.6738382727
 H         -5.1243083452       -2.4227447939       -0.0785250748
 H         -7.5787442044       -2.5265796268       -0.2444227441
 H         -8.9243968956       -0.4850361477       -0.3907447222
 H         -7.8450771338        1.7404662158       -0.4045276412
 H         -6.0676329758        3.8324023508       -0.3624279283
 H         -4.0451162052        5.2532748911       -0.2776430429
 H         -1.8224535374        4.2518460185       -0.0218882449
 H         -1.5346294068        1.8156467074        0.1216796768
 H         -1.5976246862        0.0753245010       -1.5361304805
 H          0.3126621568       -1.4527119673       -1.3397282051
 H          3.2878000353       -4.2601034704       -0.8325496923
 H          5.3006659613       -2.8654394082       -1.2609816762
