  86
  -128.140361994000       0.196343704683664      !
 C        -12.1010992024        0.0543524538        0.0764340416
 C        -11.3895660238        1.1296389209        0.5817669538
 C        -10.0073755041        1.1190539341        0.5636409267
 C         -9.3131825508        0.0335064308        0.0342869603
 C         -7.8433181848        0.0215334018        0.0139497233
 C         -7.1488595269       -0.4535624135       -1.0964594366
 C         -5.7680882184       -0.4623564673       -1.1161874928
 C         -5.0406679858       -0.0063371483       -0.0210487888
 C         -3.5636706927       -0.0213130178       -0.0347291555
 C         -2.8683032796       -0.9021342719        0.8065757279
 C         -3.5417924076       -1.8225176044        1.6521452365
 C         -2.8518788084       -2.6664314631        2.4670377734
 C         -1.4424170720       -2.6474421595        2.4863321057
 C         -0.7578326560       -1.7933161013        1.6785920554
 C         -1.4393101832       -0.9016804499        0.8098625670
 C         -0.7408176149       -0.0327863644       -0.0374312547
 C          0.7409369129       -0.0256639878       -0.0250659698
 C          1.4222762134        0.8622179413        0.8166206173
 C          0.7229886042        1.7589811325        1.6659112866
 C          1.3905255810        2.6318952913        2.4676907546
 C          2.7998002368        2.6666948105        2.4605595420
 C          3.5065327351        1.8194880805        1.6637141537
 C          2.8511852211        0.8789339728        0.8260816623
 C          3.5636368065       -0.0052599206        0.0030424780
 C          5.0406838920        0.0075189803        0.0136623507
 C          5.7527618896        0.4591737942       -1.0933983558
 C          7.1334663450        0.4746417100       -1.0832434575
 C          7.8431494226        0.0276279701        0.0290867878
 C          9.3132215005        0.0348913805        0.0345966871
 C         10.0262565351       -1.0394616428        0.5617349513
 C         11.4085426517       -1.0349106687        0.5608818842
 C         12.1011113459        0.0449997828        0.0393141195
 C         11.4024335967        1.1200945728       -0.4840098329
 C         10.0200999666        1.1147191543       -0.4894313885
 C          7.1277425868       -0.4282878212        1.1342544631
 C          5.7469522481       -0.4326384444        1.1291842041
 C          2.8801914391       -0.9014464254       -0.8317599480
 C          3.5656072556       -1.8355146468       -1.6524060348
 C          2.8870891976       -2.6960164373       -2.4594290042
 C          1.4778278398       -2.6805667277       -2.4958246029
 C          0.7818849797       -1.8138153704       -1.7116171110
 C          1.4512925555       -0.9052171705       -0.8510640218
 C         -1.4340875383        0.8360205652       -0.8889996823
 C         -0.7467945419        1.7193076289       -1.7618938575
 C         -1.4257982248        2.5761920565       -2.5712524750
 C         -2.8351244544        2.6079302553       -2.5483585430
 C         -3.5304859707        1.7728985667       -1.7291026713
 C         -2.8630990096        0.8485286387       -0.8829088025
 C         -5.7317400194        0.4648028632        1.0913607689
 C         -7.1122228612        0.4835835789        1.1062232242
 C        -10.0392769960       -1.0411672060       -0.4740147093
 C        -11.4213601913       -1.0309988780       -0.4505609012
 H        -13.1808081085        0.0623608209        0.0927354891
 H        -11.9148207842        1.9813637526        0.9894977558
 H         -9.4575200221        1.9685693715        0.9431013813
 H         -7.6978310400       -0.7996807665       -1.9600751026
 H         -5.2410370445       -0.8306903587       -1.9848519095
 H         -4.6210840030       -1.8453731685        1.6331389943
 H         -3.3796124281       -3.3610042538        3.1041035199
 H         -0.9131759880       -3.3222043925        3.1430274689
 H          0.3219710136       -1.7808715897        1.6809582058
 H         -0.3565334722        1.7337718161        1.6589101366
 H          0.8477734596        3.3094495420        3.1103424809
 H          3.3138445928        3.3758905674        3.0927214330
 H          4.5855987221        1.8542911616        1.6542366027
 H          5.2134850445        0.8043229411       -1.9641756783
 H          7.6709788518        0.8168256340       -1.9556680072
 H          9.4903474715       -1.8914662786        0.9546462560
 H         11.9486223461       -1.8779480072        0.9668522595
 H         13.1809557629        0.0486881246        0.0407359932
 H         11.9376632069        1.9670685268       -0.8879246296
 H          9.4796642490        1.9632556223       -0.8835456057
 H          7.6606784283       -0.7629769196        2.0123914957
 H          5.2026936098       -0.7859885903        1.9935405324
 H          4.6446385161       -1.8553047276       -1.6205003395
 H          3.4234071244       -3.4012753768       -3.0773279391
 H          0.9582191392       -3.3682263007       -3.1467905024
 H         -0.2978689706       -1.8033258644       -1.7267718928
 H          0.3328595251        1.6965977032       -1.7670343778
 H         -0.8924740307        3.2436252020       -3.2321609003
 H         -3.3577809297        3.3051963541       -3.1866614386
 H         -4.6095100658        1.8049783039       -1.7077401795
 H         -5.1757674279        0.8214303175        1.9467154847
 H         -7.6324838348        0.8387006852        1.9835234900
 H         -9.5140250092       -1.8978093065       -0.8708166742
 H        -11.9713996509       -1.8738356016       -0.8426050364
  86
  -128.140342891400       0.192414605214959      !
 C        -12.0943415676       -0.2184392042        0.1259241338
 C        -11.4367164340        0.9536527535        0.4600444600
 C        -10.0555872626        1.0079181073        0.4340171862
 C         -9.3091213188       -0.1091993179        0.0666349329
 C         -7.8402292356       -0.0547385509        0.0393205187
 C         -7.1246857171       -0.6422508143       -1.0015979258
 C         -5.7448874991       -0.5945447932       -1.0250252151
 C         -5.0399147184        0.0309438347       -0.0011309882
 C         -3.5627359287        0.0603839593       -0.0175584737
 C         -2.8415716712       -0.7120128490        0.9043144200
 C         -3.4888788102       -1.5417802188        1.8573457084
 C         -2.7745461519       -2.2872942757        2.7438687939
 C         -1.3652760069       -2.2582142524        2.7283478263
 C         -0.7056616611       -1.4894902743        1.8202930586
 C         -1.4129135450       -0.6943204038        0.8811413650
 C         -0.7405526119        0.0908944183       -0.0641971671
 C          0.7407715689        0.0940270481       -0.0882265655
 C          1.4489000639        0.9377037388        0.7767829098
 C          0.7785568456        1.8289895430        1.6546057445
 C          1.4737034143        2.6501556914        2.4872167568
 C          2.8833961884        2.6343724299        2.4866068695
 C          3.5628654947        1.7946539099        1.6588195015
 C          2.8774715078        0.9127020763        0.7824656548
 C          3.5627662181        0.0434410547       -0.0781483059
 C          5.0394700219       -0.0047782085       -0.0426368745
 C          5.7995492115        0.5206984234       -1.0825188420
 C          7.1793695644        0.4820145980       -1.0336089940
 C          7.8390420687       -0.0836799024        0.0553245673
 C          9.3076271244       -0.1138897971        0.1151466218
 C         10.0621766423       -0.4096154909       -1.0178431528
 C         11.4430296317       -0.4372284662       -0.9566309170
 C         12.0934071311       -0.1652123420        0.2353197152
 C         11.3535284838        0.1323592550        1.3675702184
 C          9.9726740221        0.1557785148        1.3093082159
 C          7.0743699161       -0.6155077453        1.0915750936
 C          5.6952485234       -0.5759213760        1.0437847372
 C          2.8539265471       -0.7872312466       -0.9570650189
 C          3.5137516415       -1.6862074051       -1.8358099397
 C          2.8109332576       -2.4913120871       -2.6782871895
 C          1.4015724663       -2.4562191057       -2.6890943419
 C          0.7299915243       -1.6205369106       -1.8516546884
 C          1.4249875446       -0.7607123250       -0.9616682444
 C         -1.4601314074        0.8658339388       -0.9819536157
 C         -0.8010240558        1.6791009931       -1.9403236685
 C         -1.5068689634        2.4384250355       -2.8211928537
 C         -2.9163704503        2.4373504914       -2.7898091249
 C         -3.5852642543        1.6716223014       -1.8851867337
 C         -2.8889714373        0.8525566625       -0.9578503856
 C         -5.7518752181        0.6178436840        1.0404562529
 C         -7.1322389417        0.5810743935        1.0568451417
 C         -9.9810052956       -1.2816741440       -0.2712796624
 C        -11.3619490116       -1.3358489936       -0.2386357309
 H        -13.1731105416       -0.2610626874        0.1498686184
 H        -12.0030608544        1.8297519703        0.7405919481
 H         -9.5478372266        1.9293631427        0.6808921943
 H         -7.6573651170       -1.1242804028       -1.8082732643
 H         -5.2002163473       -1.0514905598       -1.8390982837
 H         -4.5680544076       -1.5741901426        1.8638608106
 H         -3.2822233079       -2.9120125816        3.4641151221
 H         -0.8159533447       -2.8575983164        3.4394345288
 H          0.3736962486       -1.4719659838        1.7971040626
 H         -0.3011662132        1.8438450442        1.6429789695
 H          0.9527351083        3.3252759369        3.1501944795
 H          3.4193326538        3.3002353789        3.1470425955
 H          4.6426338495        1.7914292018        1.6514148976
 H          5.2995973100        0.9721904644       -1.9277721832
 H          7.7548825474        0.9161108461       -1.8383580948
 H          9.5604048984       -0.6392018042       -1.9468030741
 H         12.0149406939       -0.6737255038       -1.8421729968
 H         13.1722683826       -0.1843866395        0.2816075101
 H         11.8550869169        0.3493045332        2.2995121273
 H          9.4014539116        0.4063924759        2.1915378556
 H          7.5669750087       -1.0799478404        1.9333461912
 H          5.1123410741       -0.9949329096        1.8517685675
 H          4.5928331306       -1.7212230474       -1.8208877243
 H          3.3273976725       -3.1683829212       -3.3429075479
 H          0.8617526568       -3.1039549013       -3.3641544130
 H         -0.3495539186       -1.5961474545       -1.8491871299
 H          0.2788247458        1.6833063060       -1.9518643083
 H         -0.9946800857        3.0534440472       -3.5465391908
 H         -3.4605784452        3.0554072582       -3.4888390545
 H         -4.6645823344        1.6801635202       -1.8553259684
 H         -5.2130846745        1.1079147398        1.8391274830
 H         -7.6699239926        1.0302399697        1.8794031846
 H         -9.4136753424       -2.1611673853       -0.5396041967
 H        -11.8693195528       -2.2544278462       -0.4956097055
  86
  -128.140037359400       0.139259633775907      !
 C        -12.0393580898       -0.6856161233       -0.3832935621
 C        -11.3214847402       -0.2564661597       -1.4870745564
 C         -9.9514943026       -0.0913983965       -1.4042136741
 C         -9.2770448574       -0.3470492287       -0.2125041053
 C         -7.8188074899       -0.1825103553       -0.1256518082
 C         -6.9944519210       -0.6149905895       -1.1622370435
 C         -5.6235109895       -0.4800622905       -1.0764298020
 C         -5.0350778351        0.0920888225        0.0480985142
 C         -3.5643013390        0.1991503040        0.1309927408
 C         -2.8555112712       -0.5994404110        1.0405891730
 C         -3.5105612779       -1.4939798520        1.9274376610
 C         -2.8060004566       -2.2640068854        2.8008380371
 C         -1.3984101592       -2.1972395527        2.8374189433
 C         -0.7300902867       -1.3713951030        1.9878447620
 C         -1.4272864500       -0.5513483291        1.0627463219
 C         -0.7432734637        0.2807236451        0.1676875256
 C          0.7375311388        0.2497393432        0.1246726739
 C          1.4917609435        1.1034964277        0.9376491082
 C          0.8682101087        2.0344254897        1.8087287728
 C          1.6064507038        2.8473823552        2.6116502717
 C          3.0142542214        2.7693975127        2.5990053782
 C          3.6494803742        1.8916060194        1.7754228210
 C          2.9194042198        1.0386923459        0.9064215446
 C          3.5566029128        0.1295454305        0.0501998317
 C          5.0307374417        0.0404721073        0.0225071816
 C          5.8024364878        1.0719269107       -0.5032285711
 C          7.1788883275        0.9669271186       -0.5492244083
 C          7.8236959974       -0.1720355577       -0.0719926967
 C          9.2871053153       -0.2945068676       -0.1389133528
 C          9.8790133747       -1.4987927395       -0.5133663737
 C         11.2545782823       -1.6158674785       -0.5826645387
 C         12.0618970297       -0.5338658983       -0.2739144885
 C         11.4843873420        0.6675724117        0.1015106617
 C         10.1086387290        0.7881625952        0.1658343719
 C          7.0488113988       -1.1987374664        0.4634959359
 C          5.6732004183       -1.0940738602        0.5102055151
 C          2.7998603073       -0.7112967470       -0.7795126556
 C          3.4092211763       -1.6136781977       -1.6906980497
 C          2.6609945738       -2.4273293121       -2.4845617248
 C          1.2534475289       -2.3888598756       -2.4207549914
 C          0.6295177254       -1.5257766160       -1.5743627739
 C          1.3730669753       -0.6555467337       -0.7350757992
 C         -1.4510403882        1.1035560851       -0.7166656696
 C         -0.7802572667        1.9774348177       -1.6112679556
 C         -1.4754594181        2.7825235196       -2.4594169514
 C         -2.8851797280        2.7647833902       -2.4598448633
 C         -3.5646646104        1.9343740731       -1.6225158964
 C         -2.8793344793        1.0676237013       -0.7311810432
 C         -5.8563275407        0.5352423789        1.0800321784
 C         -7.2282748084        0.3989057621        0.9941856361
 C        -10.0098006615       -0.7732325879        0.8927871087
 C        -11.3789626934       -0.9437606718        0.8062977695
 H        -13.1088875589       -0.8189918019       -0.4501275104
 H        -11.8317528287       -0.0499557547       -2.4166663359
 H         -9.3983130146        0.2571874357       -2.2644815187
 H         -7.4327366948       -1.0826733567       -2.0318633422
 H         -4.9929174320       -0.8305630289       -1.8812350641
 H         -4.5879374438       -1.5545049881        1.8962028536
 H         -3.3204844220       -2.9356501318        3.4724470588
 H         -0.8574620607       -2.8130867572        3.5408218023
 H          0.3484853468       -1.3218408357        2.0043477160
 H         -0.2108153369        2.0808014877        1.8188733023
 H          1.1219377397        3.5533377837        3.2701063955
 H          3.5842787221        3.4128272981        3.2531835318
 H          4.7273304030        1.8276134892        1.7737221146
 H          5.3131305117        1.9544240393       -0.8905870673
 H          7.7617650314        1.7663358361       -0.9832332709
 H          9.2536666685       -2.3418468771       -0.7698167344
 H         11.6990485957       -2.5548450955       -0.8791743446
 H         13.1365660157       -0.6268835849       -0.3249550388
 H         12.1094106506        1.5139824086        0.3466620906
 H          9.6640711811        1.7229516582        0.4758241367
 H          7.5322285635       -2.0792054956        0.8612029204
 H          5.0825199496       -1.8952980022        0.9313777390
 H          4.4869608659       -1.6387302787       -1.7486509285
 H          3.1403063049       -3.1072148657       -3.1736336297
 H          0.6767079377       -3.0457432062       -3.0552405026
 H         -0.4484780153       -1.4848484293       -1.5295206142
 H          0.2994884058        1.9935253912       -1.5976640629
 H         -0.9547606120        3.4461656432       -3.1340644893
 H         -3.4212273580        3.4202820517       -3.1305300210
 H         -4.6444470199        1.9290678207       -1.6173547232
 H         -5.4110102065        0.9941792385        1.9514747464
 H         -7.8531122574        0.7621267856        1.7972459241
 H         -9.4972028059       -0.9926157656        1.8183645420
 H        -11.9333088394       -1.2821489109        1.6696460670
  86
  -128.139980743200       0.131161460732472      !
 C        -12.0950813241        0.2439909677        0.0479457495
 C        -11.3666107884        0.8377354712        1.0652117712
 C         -9.9851294073        0.7885350976        1.0511687582
 C         -9.3088605941        0.1392074935        0.0208801692
 C         -7.8399430625        0.0847333938        0.0069965646
 C         -7.1725485292       -1.0849866390       -0.3500416520
 C         -5.7927020784       -1.1374566990       -0.3570091881
 C         -5.0391311714       -0.0176211450       -0.0179679654
 C         -3.5631492273       -0.0655909568       -0.0283746736
 C         -2.8812679880       -0.8450216761        0.9174904147
 C         -3.5664973680       -1.5899987704        1.9132055402
 C         -2.8889190708       -2.3459996706        2.8195951261
 C         -1.4806571778       -2.4034702827        2.7915581237
 C         -0.7843795973       -1.6873823221        1.8680132477
 C         -1.4525331807       -0.8796675560        0.9112133980
 C         -0.7406672550       -0.1178802238       -0.0234263272
 C          0.7407565592       -0.1193078000       -0.0042733097
 C          1.4211091850        0.7455682116        0.8621325953
 C          0.7216610590        1.6197766133        1.7345729227
 C          1.3888301836        2.4389280878        2.5914618816
 C          2.7978037400        2.4266054410        2.6328839761
 C          3.5046207391        1.6119069303        1.8030580184
 C          2.8497347836        0.7569167455        0.8778086132
 C          3.5634784903       -0.0798176924        0.0069934217
 C          5.0395492929       -0.0340120070       -0.0020112825
 C          5.7034637564        1.1003084300       -0.4607010230
 C          7.0827113771        1.1569575805       -0.4602590926
 C          7.8402127710        0.0812490661       -0.0013093364
 C          9.3085967103        0.1490037870        0.0106441381
 C         10.0762016910       -0.9484149688       -0.3722030150
 C         11.4568020651       -0.8801382067       -0.3601328733
 C         12.0936538445        0.2828131665        0.0396409011
 C         11.3405898459        1.3791697540        0.4246916585
 C          9.9598674212        1.3144828205        0.4080800010
 C          7.1733871446       -1.0553777918        0.4507363001
 C          5.7934684565       -1.1124097154        0.4509180992
 C          2.8812509960       -0.9460884206       -0.8595217989
 C          3.5664942522       -1.7909070565       -1.7718505561
 C          2.8884505881       -2.6314036941       -2.6001768149
 C          1.4797302604       -2.6783664222       -2.5733633346
 C          0.7835571804       -1.8694296580       -1.7298285942
 C          1.4522787474       -0.9733876314       -0.8556706213
 C         -1.4205474331        0.6605864539       -0.9685537003
 C         -0.7205709646        1.4398657018       -1.9261509971
 C         -1.3875110726        2.1763529513       -2.8554478858
 C         -2.7967451432        2.1711533577       -2.8872712301
 C         -3.5040967262        1.4451856600       -1.9790157760
 C         -2.8493175521        0.6786926184       -0.9792690451
 C         -5.7033611878        1.1540758439        0.3329118722
 C         -7.0830701381        1.2026760757        0.3506418131
 C        -10.0517889848       -0.4567477457       -0.9957743544
 C        -11.4330002130       -0.4018551242       -0.9829206515
 H        -13.1741459492        0.2846761781        0.0581374890
 H        -11.8774338889        1.3395883857        1.8741613876
 H         -9.4223032989        1.2388326944        1.8561327247
 H         -7.7427225224       -1.9667658311       -0.6040529804
 H         -5.2863958323       -2.0515526934       -0.6332170388
 H         -4.6446888686       -1.5425543263        1.9418863957
 H         -3.4256577283       -2.9073240364        3.5704061263
 H         -0.9616299486       -3.0155007240        3.5145080313
 H          0.2948331057       -1.7187709027        1.8470708272
 H         -0.3576957511        1.6167526935        1.7060212012
 H          0.8460157999        3.0992954055        3.2516763652
 H          3.3111363766        3.0697253198        3.3326485783
 H          4.5834036295        1.5989524437        1.8423917029
 H          5.1268030060        1.9389786837       -0.8242896393
 H          7.5819024865        2.0381691247       -0.8361102380
 H          9.5848369921       -1.8529559388       -0.7005013970
 H         12.0393671176       -1.7374914412       -0.6647535426
 H         13.1722540079        0.3341414500        0.0514413960
 H         11.8313933283        2.2881123080        0.7410060252
 H          9.3776331651        2.1677174093        0.7251527512
 H          7.7428734176       -1.8928127056        0.8270143172
 H          5.2877573766       -1.9947660780        0.8170894879
 H          4.6450285875       -1.7514392609       -1.8000760506
 H          3.4249996188       -3.2687206809       -3.2877800086
 H          0.9603801659       -3.3570276893       -3.2339261627
 H         -0.2959234588       -1.8927984602       -1.7108557962
 H          0.3589562046        1.4316882099       -1.9033643454
 H         -0.8440149154        2.7646273361       -3.5801442778
 H         -3.3104406062        2.7482916682       -3.6422186785
 H         -4.5832646480        1.4375297220       -2.0104549596
 H         -5.1270089872        2.0291290148        0.5980781217
 H         -7.5823324748        2.1240063921        0.6133657515
 H         -9.5399842955       -0.9473846607       -1.8111616973
 H        -11.9960034829       -0.8627616709       -1.7814540948
  86
  -128.139950570000       0.127039741708752      !
 C        -12.0726998499       -0.2196136493        0.4758687914
 C        -11.4482026577       -0.7634409086       -0.6340944117
 C        -10.0718384394       -0.7126875994       -0.7525937538
 C         -9.2965593308       -0.1116733063        0.2363557462
 C         -7.8321027081       -0.0625608780        0.1189230704
 C         -7.1178181711       -1.1644080533       -0.3465775529
 C         -5.7399948949       -1.1298045510       -0.4287809474
 C         -5.0356433582        0.0118598761       -0.0580071117
 C         -3.5601789845        0.0384251196       -0.1168355309
 C         -2.8188684132       -0.7590696869        0.7679626629
 C         -3.4432057673       -1.5796181603        1.7441192530
 C         -2.7091757247       -2.3503536358        2.5921764144
 C         -1.3014469674       -2.3475516551        2.5218884775
 C         -0.6628759821       -1.5599793782        1.6150810130
 C         -1.3911841576       -0.7357937800        0.7179280599
 C         -0.7391026524        0.0964425882       -0.2010446438
 C          0.7421203699        0.1270818965       -0.2228464470
 C          1.4290061726        0.9760645443        0.6540171975
 C          0.7343993793        1.8578508342        1.5225183218
 C          1.4051030312        2.6606118953        2.3920538164
 C          2.8126759324        2.6185942513        2.4543095873
 C          3.5148957843        1.7894518228        1.6348389329
 C          2.8572769385        0.9533299292        0.6944791244
 C          3.5641361555        0.0936538428       -0.1596112505
 C          5.0374645181        0.0302908502       -0.0803830599
 C          5.8278252667        1.1078741831       -0.4683232236
 C          7.2032249513        1.0466875439       -0.3586120142
 C          7.8288085878       -0.0937480647        0.1401273902
 C          9.2911831378       -0.1541247396        0.2772651989
 C          9.9908177178       -1.3085462368       -0.0662691731
 C         11.3650183794       -1.3660346072        0.0717888419
 C         12.0621927756       -0.2740105005        0.5606872908
 C         11.3766953264        0.8785026303        0.9063284865
 C         10.0031853154        0.9399527777        0.7631962880
 C          7.0357346468       -1.1757240918        0.5159395387
 C          5.6609175374       -1.1144880632        0.4079289029
 C          2.8759225990       -0.7270972099       -1.0649402044
 C          3.5577377747       -1.5705750057       -1.9810411977
 C          2.8751520810       -2.3690965903       -2.8463305360
 C          1.4653686213       -2.3751383049       -2.8522073784
 C          0.7732220108       -1.5705678003       -2.0011591564
 C          1.4471501756       -0.7157809212       -1.0904636069
 C         -1.4777749787        0.8963030484       -1.0807211509
 C         -0.8378811964        1.7476547538       -2.0187349749
 C         -1.5615004069        2.5088690592       -2.8832801606
 C         -2.9703403231        2.4572088151       -2.8665580582
 C         -3.6210237312        1.6580243171       -1.9776562221
 C         -2.9062155574        0.8615819305       -1.0447625634
 C         -5.7477307792        1.1204125545        0.3898278977
 C         -7.1249004772        1.0815612880        0.4818567801
 C         -9.9358352317        0.4354643642        1.3467200986
 C        -11.3118534248        0.3793480664        1.4658005191
 H        -13.1476777462       -0.2624357574        0.5690648153
 H        -12.0369536078       -1.2288404967       -1.4111918344
 H         -9.5916038751       -1.1252891528       -1.6281638416
 H         -7.6471775183       -2.0650922795       -0.6214956877
 H         -5.1964604558       -1.9940790636       -0.7834808038
 H         -4.5209152593       -1.5778833947        1.8070122482
 H         -3.2002729275       -2.9690072261        3.3289748035
 H         -0.7363750520       -2.9704785701        3.1995913411
 H          0.4155266889       -1.5465860610        1.5633269137
 H         -0.3442781591        1.8773833462        1.4765596359
 H          0.8660756497        3.3295711701        3.0466802995
 H          3.3291669958        3.2496636890        3.1626927623
 H          4.5922940158        1.7540334230        1.6918447940
 H          5.3548699005        1.9958345803       -0.8633980584
 H          7.8032170961        1.8863078975       -0.6783082395
 H          9.4535412701       -2.1582383377       -0.4622657373
 H         11.8949838239       -2.2662392906       -0.2036991561
 H         13.1353320988       -0.3209077478        0.6716857061
 H         11.9148182929        1.7320758740        1.2922750063
 H          9.4714024442        1.8354061270        1.0511148320
 H          7.5016740165       -2.0627325510        0.9198464721
 H          5.0551140065       -1.9547305567        0.7164266329
 H          4.6374514266       -1.5606631081       -1.9845125429
 H          3.4086701882       -3.0031385675       -3.5392813212
 H          0.9421153821       -3.0192888038       -3.5435683242
 H         -0.3066296862       -1.5623879733       -2.0073648443
 H          0.2417083785        1.7742337298       -2.0314815410
 H         -1.0643400223        3.1531333087       -3.5934900116
 H         -3.5289267128        3.0571014476       -3.5700287734
 H         -4.6998569019        1.6139539984       -1.9725449665
 H         -5.2104457669        2.0132140189        0.6768947903
 H         -7.6625720979        1.9540296563        0.8235553954
 H         -9.3459210850        0.8867756239        2.1314331861
 H        -11.7928195877        0.8010849246        2.3363953688
  86
  -128.139841929400       0.113243123385608      !
 C        -12.0619349959       -0.6131384305        0.0583758142
 C        -11.3406667111       -0.9743163727       -1.0673940991
 C         -9.9650917520       -0.8382771185       -1.0850565360
 C         -9.2881927034       -0.3325971678        0.0224112678
 C         -7.8246012797       -0.1955124664        0.0079228805
 C         -7.0243774951       -1.1978730479       -0.5361710962
 C         -5.6489764431       -1.0818801004       -0.5336540110
 C         -5.0324374987        0.0454380432        0.0020965906
 C         -3.5590588320        0.1490300998        0.0087490459
 C         -2.8110553143       -0.7141370885        0.8233313242
 C         -3.4302622254       -1.6429435902        1.7006613271
 C         -2.6905666284       -2.4801376480        2.4778833768
 C         -1.2824107682       -2.4414676789        2.4290758684
 C         -0.6493478518       -1.5541413323        1.6151496700
 C         -1.3838468619       -0.6576520639        0.7958431734
 C         -0.7392733815        0.2714573399       -0.0309438027
 C          0.7416633769        0.2917089463       -0.0755936940
 C          1.4619868617        1.0615803767        0.8454218832
 C          0.8037281071        1.8885679413        1.7924063838
 C          1.5106125243        2.6431299999        2.6765294651
 C          2.9202134131        2.6197734337        2.6620516176
 C          3.5879873310        1.8346581504        1.7732229909
 C          2.8903651478        1.0205420712        0.8426405803
 C          3.5628883434        0.2003343816       -0.0747353749
 C          5.0353584079        0.0948736993       -0.0268305076
 C          5.8304216650        0.5958754860       -1.0529739650
 C          7.2041982163        0.4601029954       -1.0081263818
 C          7.8232346606       -0.1791796766        0.0637895375
 C          9.2832986883       -0.3455935810        0.1030694046
 C          9.9894907140       -0.1566519124        1.2887304605
 C         11.3613820091       -0.3225839675        1.3249534515
 C         12.0496886379       -0.6856598657        0.1794388056
 C         11.3576042138       -0.8774313903       -1.0046131744
 C          9.9864733243       -0.7060151450       -1.0440948723
 C          7.0254156045       -0.6683965745        1.0958454334
 C          5.6523577022       -0.5336691574        1.0511053341
 C          2.8410760320       -0.5489813878       -1.0156979191
 C          3.4835850970       -1.3969447439       -1.9559445319
 C          2.7671792868       -2.1189023550       -2.8601922587
 C          1.3594962903       -2.0476411048       -2.8766634178
 C          0.7031746314       -1.2656401447       -1.9776424187
 C          1.4129513985       -0.4961311467       -1.0192323510
 C         -1.4851371991        1.1540922347       -0.8207577285
 C         -0.8522440300        2.1147908928       -1.6518765130
 C         -1.5815269331        2.9539954073       -2.4357470596
 C         -2.9891813503        2.8740633000       -2.4433240069
 C         -3.6332991820        1.9684814809       -1.6575904431
 C         -2.9130192581        1.0879120640       -0.8081464252
 C         -5.8293883873        1.0536930416        0.5350857736
 C         -7.2053034226        0.9317601551        0.5430007157
 C        -10.0241412000        0.0317263030        1.1475582520
 C        -11.3990422708       -0.1106969084        1.1655280228
 H        -13.1361956369       -0.7227567277        0.0727130447
 H        -11.8528063317       -1.3626200540       -1.9357880668
 H         -9.4086819941       -1.1077777391       -1.9712894478
 H         -7.4857325758       -2.0863408106       -0.9421872736
 H         -5.0377436651       -1.8696012944       -0.9509037435
 H         -4.5086092788       -1.6692434451        1.7464341452
 H         -3.1773529011       -3.1797983428        3.1414343970
 H         -0.7126134547       -3.1175194987        3.0495323819
 H          0.4290738232       -1.5132217973        1.5817319018
 H         -0.2760470613        1.9095946366        1.7898683713
 H          0.9994931387        3.2711351282        3.3914039442
 H          3.4655770813        3.2355950676        3.3621787237
 H          4.6676281447        1.8258317337        1.7568544775
 H          5.3628231545        1.1001512115       -1.8868373054
 H          7.8082031127        0.8673163523       -1.8060006964
 H          9.4596738649        0.1417167824        2.1819361389
 H         11.8964421431       -0.1679598487        2.2506375892
 H         13.1209158012       -0.8187083855        0.2093792290
 H         11.8886394438       -1.1648208780       -1.9004813815
 H          9.4493115372       -0.8743534199       -1.9663802087
 H          7.4856235691       -1.1819127610        1.9273975030
 H          5.0426431722       -0.9291703183        1.8511125348
 H          4.5610140428       -1.4619519334       -1.9399214794
 H          3.2721990186       -2.7565746568       -3.5709689247
 H          0.8087321878       -2.6256826934       -3.6041229179
 H         -0.3754071378       -1.2146349898       -1.9784874012
 H          0.2267325198        2.1627440468       -1.6471033759
 H         -1.0898540412        3.6828927425       -3.0631569717
 H         -3.5521567587        3.5386993779       -3.0822202424
 H         -4.7109796433        1.9039573273       -1.6717503109
 H         -5.3610062714        1.9329658103        0.9543699980
 H         -7.8103808578        1.7271160919        0.9535591254
 H         -9.5102479668        0.4080203199        2.0204233750
 H        -11.9561612496        0.1698835287        2.0475116042
  86
  -128.139729470000       0.100537730498638      !
 C        -12.0020938192       -0.8937101818       -0.4233672528
 C        -11.2935077048       -0.4362624404       -1.5217829378
 C         -9.9312874450       -0.2201809354       -1.4295935517
 C         -9.2554653283       -0.4529243860       -0.2340006741
 C         -7.8044092492       -0.2380406879       -0.1377565018
 C         -6.9600074125       -0.6391861270       -1.1708165552
 C         -5.5946023165       -0.4632033842       -1.0743234579
 C         -5.0313990864        0.1198075807        0.0576470520
 C         -3.5640979465        0.2588309101        0.1518443812
 C         -2.8452420066       -0.5257673614        1.0660452416
 C         -3.4883119606       -1.4235702686        1.9583573985
 C         -2.7737804020       -2.1798829748        2.8356326709
 C         -1.3671502198       -2.0962151704        2.8702434721
 C         -0.7097445691       -1.2680889864        2.0144164704
 C         -1.4176230410       -0.4612064048        1.0858789243
 C         -0.7440911751        0.3714232113        0.1831818821
 C          0.7360496860        0.3363691341        0.1246836674
 C          1.5049174509        1.1806803344        0.9335611000
 C          0.8970569511        2.1201745765        1.8065138333
 C          1.6490866860        2.9229613092        2.6068439568
 C          3.0556224101        2.8250350351        2.5899775632
 C          3.6760455241        1.9380244114        1.7649825000
 C          2.9315348808        1.0958230581        0.8977575755
 C          3.5528222259        0.1767903809        0.0404206157
 C          5.0245623595        0.0539214181        0.0171340180
 C          5.8248082398        1.0663088814       -0.5027509593
 C          7.1977439728        0.9221011103       -0.5506365258
 C          7.8109773886       -0.2325133625       -0.0695339864
 C          9.2703265170       -0.3971332378       -0.1350340354
 C          9.9767473834       -0.0104440627       -1.2715999021
 C         11.3468892106       -0.1806584314       -1.3404558426
 C         12.0345594183       -0.7341667163       -0.2734162055
 C         11.3429408369       -1.1177423771        0.8634141790
 C          9.9720470292       -0.9536446935        0.9318359125
 C          7.0081102355       -1.2374280917        0.4658994771
 C          5.6352979979       -1.0988774596        0.5030358100
 C          2.7816026074       -0.6484423007       -0.7917853030
 C          3.3755595396       -1.5554145689       -1.7085583250
 C          2.6136671280       -2.3549931201       -2.5037170393
 C          1.2070852686       -2.2976335939       -2.4347464149
 C          0.5979028741       -1.4299746098       -1.5823129717
 C          1.3559977257       -0.5730594102       -0.7423419751
 C         -1.4623991147        1.1873213105       -0.6989623746
 C         -0.8028038247        2.0672695353       -1.5958644978
 C         -1.5084407276        2.8645482408       -2.4427907765
 C         -2.9178978124        2.8314903116       -2.4403115953
 C         -3.5867266616        1.9940742693       -1.6013525146
 C         -2.8902550978        1.1358440954       -0.7104966812
 C         -5.8732695478        0.5351634891        1.0844998844
 C         -7.2398866856        0.3576931809        0.9879411774
 C         -9.9791022180       -0.9078798692        0.8658145534
 C        -11.3403510505       -1.1289854663        0.7701490194
 H        -13.0653737163       -1.0670869057       -0.4975246920
 H        -11.8050627830       -0.2471271054       -2.4543595047
 H         -9.3860436650        0.1506276938       -2.2855947508
 H         -7.3773510868       -1.1171413178       -2.0450942277
 H         -4.9478720581       -0.7916116551       -1.8756159182
 H         -4.5647684461       -1.4980765673        1.9285160180
 H         -3.2795607532       -2.8545195634        3.5108350380
 H         -0.8180480893       -2.7013991888        3.5765664767
 H          0.3681929990       -1.2064041703        2.0290657697
 H         -0.1812224719        2.1817819782        1.8192532429
 H          1.1766810414        3.6364014761        3.2660079917
 H          3.6366757160        3.4604012611        3.2423256811
 H          4.7529039930        1.8592679144        1.7600704977
 H          5.3609542631        1.9660826298       -0.8816099106
 H          7.8056991806        1.7203656283       -0.9511399221
 H          9.4427371721        0.4054287042       -2.1138773598
 H         11.8805308439        0.1166316645       -2.2315238028
 H         13.1049034987       -0.8666040483       -0.3277972977
 H         11.8746366664       -1.5463406061        1.7005274428
 H          9.4394368157       -1.2408808392        1.8270285046
 H          7.4643425662       -2.1458644323        0.8315297877
 H          5.0214749620       -1.8893302606        0.9112295345
 H          4.4526499495       -1.5953536472       -1.7703193952
 H          3.0814439568       -3.0384194931       -3.1971758507
 H          0.6191744167       -2.9438039410       -3.0699791336
 H         -0.4792549579       -1.3752803971       -1.5335943285
 H          0.2767478908        2.0952174820       -1.5837530341
 H         -0.9964567480        3.5340283930       -3.1183265477
 H         -3.4623502637        3.4816703848       -3.1093943859
 H         -4.6664083314        1.9773959431       -1.5934847867
 H         -5.4487219884        1.0050331844        1.9604665834
 H         -7.8812086471        0.6985253534        1.7878353284
 H         -9.4647500789       -1.1100180559        1.7943185220
 H        -11.8872476191       -1.4895501395        1.6292464725
