  119
       -190.32929206
 C         -0.0439592560       -7.8822664218        0.2389719731
 C          1.1609564555       -7.1983200782        0.2917241200
 C          1.1749038342       -5.8174070217        0.2768416703
 C         -0.0238569235       -5.1092624640        0.2084265258
 C         -0.0141838662       -3.6484242117        0.1888829544
 N         -1.1871254715       -3.0181445362        0.1403548142
 C         -1.1290944024       -1.6932308873        0.1048246203
 C         -2.3685941952       -0.9196861962        0.0295133353
 C         -3.5956324352       -1.5081151549        0.3054319439
 C         -4.7543119208       -0.7410816286        0.2415546838
 N         -5.9942869284       -1.3277409722        0.5107400151
 C         -6.4421168314       -2.5309791987       -0.0044778565
 C         -5.8386410714       -3.3827247070       -0.9185419811
 C         -6.5253374229       -4.5238211951       -1.2875856436
 C         -7.7872683796       -4.8129137113       -0.7736411547
 C         -8.4042014052       -3.9554293195        0.1150261068
 C         -7.7327796397       -2.8033239280        0.5023462410
 C         -8.0697190283       -1.7118219703        1.3732600054
 C         -9.1769199118       -1.4308391673        2.1625451697
 C         -9.1711600206       -0.2795436372        2.9241392053
 C         -8.0718910465        0.5754946613        2.9186756155
 C         -6.9591010219        0.3169808126        2.1409540546
 C         -6.9707431825       -0.8232470733        1.3506004614
 C         -4.6779659510        0.6130012677       -0.0756050920
 C         -3.4437874977        1.2019245977       -0.3395897718
 N         -3.3507495494        2.5657386694       -0.6286430530
 C         -4.1463849114        3.2744893808       -1.5095033412
 C         -5.1438478662        2.8233202761       -2.3615687619
 C         -5.7673590520        3.7509952626       -3.1745616357
 C         -5.4071200580        5.0960757638       -3.1528956067
 C         -4.3972710577        5.5463730811       -2.3261633673
 C         -3.7559951760        4.6330076821       -1.5001661220
 C         -2.6752571446        4.7428142503       -0.5599165925
 C         -1.9165323662        5.8118058482       -0.1026565030
 C         -0.9402601008        5.5737512950        0.8431672202
 C         -0.7251666811        4.2918429095        1.3411268012
 C         -1.4752666574        3.2145636950        0.9098399801
 C         -2.4460609885        3.4437075113       -0.0544711710
 C         -2.2915008390        0.4280444371       -0.3032391948
 N          0.0002446061       -0.9960174344        0.1326907355
 C          1.1229722001       -1.7033348160        0.1915576233
 C          2.3702205802       -0.9380811652        0.1949445409
 C          2.2985216215        0.4455315160        0.3126029911
 C          3.4531589380        1.2135443372        0.2359594592
 N          3.3554018155        2.6069587745        0.2802470934
 C          4.1493266986        3.4655957210        1.0175227990
 C          5.1479158617        3.1801655998        1.9363845978
 C          5.7728279215        4.2394314618        2.5662708252
 C          5.4101925456        5.5575905604        2.3016713168
 C          4.3970287066        5.8481780629        1.4097874672
 C          3.7561284795        4.7992886834        0.7643292061
 C          2.6741771652        4.7352922130       -0.1783680886
 C          1.9121771260        5.7040453646       -0.8172211336
 C          0.9356210653        5.2994001915       -1.7043397835
 C          0.7254288763        3.9488535887       -1.9670981462
 C          1.4795415871        2.9675845107       -1.3525909889
 C          2.4489652359        3.3660370627       -0.4432647329
 C          4.6855240898        0.5863970157        0.0680979272
 C          4.7589647890       -0.8025982807       -0.0087750028
 N          5.9980434277       -1.4274532976       -0.1893828044
 C          7.1453965870       -1.1915768402        0.5435225213
 C          7.3373664124       -0.3751084295        1.6477690351
 C          8.5952579003       -0.3414894167        2.2180977054
 C          9.6417713859       -1.1097632230        1.7136913904
 C          9.4498220625       -1.9480181978        0.6336554151
 C          8.1937611391       -1.9969637125        0.0438533419
 C          7.6442130428       -2.7515906196       -1.0477371312
 C          8.1796145322       -3.6834904862       -1.9270645121
 C          7.3619148001       -4.2184574820       -2.9020296814
 C          6.0310719524       -3.8232178732       -3.0156160321
 C          5.4762068715       -2.8971147615       -2.1529797742
 C          6.2864362644       -2.3744059248       -1.1555156137
 C          3.5999021641       -1.5685944305        0.0530668321
 N          1.1655716969       -3.0293860714        0.2129221222
 C         -1.2328483212       -5.8013650776        0.1545311960
 C         -1.2388364164       -7.1823250608        0.1703269035
 H         -0.0518047105       -8.9623614866        0.2517122041
 H          2.0904282200       -7.7458842952        0.3444581219
 H          2.1025695083       -5.2685175422        0.3182475644
 H         -3.6336205784       -2.5464745671        0.5917546213
 H         -4.8692569027       -3.1615792006       -1.3387432815
 H         -6.0738272336       -5.2050394368       -1.9937714101
 H         -8.2898597327       -5.7165427718       -1.0848905421
 H         -9.3892163373       -4.1696142470        0.5013462659
 H        -10.0196130458       -2.1051926618        2.1810799807
 H        -10.0230938332       -0.0401797232        3.5428258177
 H         -8.0865149700        1.4591907591        3.5393394565
 H         -6.1053313158        0.9770511392        2.1659763510
 H         -5.5777443792        1.2072515464       -0.1127896321
 H         -5.4176965695        1.7799727663       -2.4056713306
 H         -6.5486689295        3.4236180787       -3.8444655329
 H         -5.9201699369        5.7901864240       -3.8016826972
 H         -4.1044387228        6.5853595384       -2.3226988715
 H         -2.0947263854        6.8077634137       -0.4791958912
 H         -0.3365795700        6.3894096767        1.2108629037
 H          0.0423760198        4.1375243142        2.0850960888
 H         -1.3166605339        2.2314903990        1.3264104343
 H         -1.3337049418        0.8582386648       -0.5449588743
 H          1.3393735187        0.9106792364        0.4684339146
 H          5.4216278894        2.1632167771        2.1697381721
 H          6.5564047968        4.0394836301        3.2820864434
 H          5.9234950899        6.3588489048        2.8120416829
 H          4.1017372560        6.8687616777        1.2186008187
 H          2.0885279309        6.7514147520       -0.6240110851
 H          0.3285500036        6.0348422135       -2.2097349078
 H         -0.0413932634        3.6623255951       -2.6716652401
 H          1.3247128133        1.9263999196       -1.5911924165
 H          5.5829352896        1.1766001369       -0.0397094930
 H          6.5266110082        0.2034309680        2.0628792218
 H          8.7690970825        0.2905881382        3.0763867934
 H         10.6116735133       -1.0545308917        2.1849905577
 H         10.2551884812       -2.5589883706        0.2549149243
 H          9.2155496166       -3.9766671315       -1.8481669629
 H          7.7572479027       -4.9464828908       -3.5946421691
 H          5.4189676696       -4.2473224187       -3.7979106856
 H          4.4484317064       -2.5861506001       -2.2630454598
 H          3.6419175423       -2.6439723914       -0.0050776632
 H         -2.1525884927       -5.2403047337        0.0987896764
 H         -2.1760653490       -7.7175295328        0.1293076446
