74
 energy: -109.472901692917 gnorm: 0.000033131432 xtb: 6.7.1 (edcfbbe)
C            7.09461487718756       -1.06265686215318        1.48770777421256
C            5.74425056151088       -0.46854995802431        1.08850432505639
C            5.24227908970913        0.40805850673375        2.25476416788884
C            5.83423720294111        0.39113605836222       -0.15600963104694
C            7.01708191256859        0.85235104964494       -0.71274262106551
C            7.00801531504402        1.66027272919763       -1.83710277182464
C            5.80869714612542        2.00301874660607       -2.43683920857608
C            4.62018010450242        1.53832684066154       -1.90935364810613
C            4.62699097929792        0.75084119390669       -0.76215752595547
N            3.42966385373803        0.22428775072722       -0.25256243849803
C            2.28218723759883        0.98053580496476       -0.18004270262268
C            2.38379222381289        2.40014345329559       -0.12750165813252
C            1.24151779316412        3.13761035951390       -0.02047965657744
C           -0.00542356083728        2.48730439032444        0.04216993619734
C           -1.25640054730889        3.12843525235486        0.11728865593224
C           -2.39499669388184        2.38231647133948        0.20179166269826
C           -2.28521429911094        0.96254412561845        0.22128889261898
N           -3.42549221785508        0.19449905100713        0.26503018423525
C           -4.64490621823327        0.70318773517203        0.73958758309635
C           -4.68666323143436        1.47491410322589        1.89656735138586
C           -5.89777912394461        1.92260687557321        2.38627888842674
C           -7.07129284860048        1.57821719997724        1.73843222281524
C           -7.03241652476520        0.78473852698257        0.60444010523623
C           -5.82610289678576        0.34050664438079        0.08557420676222
C           -5.68384374717449       -0.50360390821644       -1.16491188647574
C           -5.14851721956865        0.39084157617919       -2.30241693788433
C           -7.01355017328548       -1.10483928799719       -1.61904583763085
C           -4.63447255205687       -1.55659732162698       -0.85152467117272
C           -4.74003007860943       -2.88389267924761       -1.23567305313310
C           -3.72411053382821       -3.78601952845008       -0.96868549751660
C           -2.58747069842674       -3.36814905549475       -0.30219412275200
C           -2.46797316017777       -2.05429036866309        0.11163193821213
C           -3.48244361416557       -1.14782748974257       -0.16769605323362
N           -1.12799152508298        0.34802958990212        0.11875466858420
C           -0.00129273081451        1.06382773892139        0.02596340200838
N            1.12960885508627        0.35677977386375       -0.08551529968209
C            3.51315383817312       -1.12156520510912        0.16366317895455
C            2.49640246443795       -2.03443169391291       -0.08570361731623
C            2.64269136074760       -3.35124154134578        0.30977790963103
C            3.80737354206882       -3.76603217306510        0.92794519370878
C            4.82446416967833       -2.85727729273447        1.16641171281975
C            4.69316070471019       -1.52710339422655        0.80069663045731
H            6.99258384147060       -1.65118599161334        2.39585805947271
H            7.80593729298628       -0.26756763223747        1.69794292132379
H            7.49195915166187       -1.69511049146859        0.69700508967034
H            4.27445178216816        0.84904906981218        2.03146529921955
H            5.14151417998835       -0.19644137432201        3.15369199630920
H            5.95126486865018        1.21073979010803        2.44902730372281
H            7.96467023770857        0.59029019742625       -0.27084346747079
H            7.94059920697694        2.01599265383502       -2.24863060092714
H            5.79828624280015        2.61885083473443       -3.32360592158977
H            3.67999479692408        1.77242097333869       -2.38680724431047
H            3.35251146269462        2.87438514969514       -0.14039886242516
H            1.28106188223963        4.21773283927052        0.03256042049593
H           -1.30216197135597        4.20926570980613        0.08975597932024
H           -3.36609891506358        2.85126812307072        0.22020040499629
H           -3.76662247957245        1.71009305437715        2.41125193541694
H           -5.92525017067438        2.52662711994301        3.28076740229443
H           -8.02132906750723        1.92111591770879        2.11982715497671
H           -7.96096367782887        0.52060023533454        0.12495714598227
H           -5.85629132521309        1.19094131120622       -2.51120588297788
H           -4.19214721521051        0.83576595123920       -2.04089725822447
H           -5.01258276073213       -0.20181532751039       -3.20458550473790
H           -7.43335598168497       -1.74958567397437       -0.85017860080438
H           -6.87335974911208       -1.68230526066385       -2.52920806262751
H           -7.72406506545610       -0.31373425073974       -1.84632056346697
H           -5.61689029686063       -3.23129792345218       -1.75768131017611
H           -3.82557968918172       -4.81374546629719       -1.28495093221854
H           -1.79307443235707       -4.06750850868564       -0.08920463936167
H           -1.58886019698413       -1.72045995193543        0.63368605320369
H            1.59527034911787       -1.70278415949177       -0.57037857669945
H            1.84660964518845       -4.05530939351971        0.11972764953341
H            3.92985140696665       -4.79609223419049        1.22881766824060
H            5.72321556635258       -3.20194891952321        1.65170627968903
