74
 energy: -109.398699593981 gnorm: 0.000087886129 xtb: 6.7.1 (edcfbbe)
C            5.82024037387934        0.82683401699703       -1.81554082120567
C            6.03312109237645        0.91234223314513       -0.28796837961031
C            7.40803472968578        1.52902995542643       -0.03209456675826
C            4.89721061693492        1.73673912230860        0.28780419661485
C            5.03102105758964        3.06246196634868        0.66685197207557
C            3.93872740395458        3.80441259224811        1.08457701853718
C            2.68336433484035        3.22341683809149        1.11770440578392
C            2.52726571228938        1.89836727606963        0.76441639084502
C            3.62763773369935        1.14276023081086        0.36874621768657
N            3.51154513939571       -0.22232621838779        0.08423888319342
C            2.36034643148339       -0.80856192185162       -0.43937397627118
C            2.47456657886363       -1.78662073098118       -1.41836652558288
C            1.31714747397824       -2.32259493613626       -1.97217565764154
C            0.05809792591098       -1.86025838487541       -1.57128812539417
C           -1.17901406899328       -2.31859525070238       -2.05208606700161
C           -2.36278904723931       -1.78260771456451       -1.55966035097135
C           -2.29915779296502       -0.81032196182459       -0.57695520512213
N           -3.48977955776248       -0.23155633972869       -0.08976411980462
C           -3.74459033287088        1.11843142587064       -0.28984981452593
C           -2.70278820334781        1.97883176767503       -0.65357468599796
C           -2.93319087896361        3.31913178817608       -0.87204645759189
C           -4.21545621799967        3.82696353170641       -0.75074123683132
C           -5.24783790101514        2.98043153518138       -0.39269453814312
C           -5.04191465829944        1.62928581684676       -0.14709630832171
C           -6.22058557150055        0.75549433576576        0.23309476041071
C           -7.18987098785135        0.69262677660174       -0.96196739060751
C           -6.92422642218366        1.37008163588588        1.45755739363383
C           -5.78506475283751       -0.65219112657726        0.58211747815993
C           -6.71560159481938       -1.56449772739736        1.06208616658879
C           -6.35991499351733       -2.84798241126732        1.43142062610504
C           -5.03223775972521       -3.23591553944575        1.34886752503247
C           -4.09280219235241       -2.35742913892982        0.85828164965620
C           -4.45722573803644       -1.07225997275008        0.43650392487034
N           -1.12415293050100       -0.37438306096218       -0.09456068134699
C            0.02802904357327       -0.83858044080548       -0.55029184190765
N            1.15761540170258       -0.38444751455129       -0.02925219734819
C            4.61617866313209       -1.02463898842291        0.37043515413387
C            4.43274330320737       -2.33062630929488        0.82507267737874
C            5.51938517777558       -3.10455746477270        1.17383809923236
C            6.79699976502417       -2.57605444594141        1.09240575187404
C            6.98142976345153       -1.27590419028843        0.65312276002033
C            5.90621468943122       -0.48634503471954        0.27804822703539
H            5.87539117623752        1.82106707275401       -2.25400090963232
H            4.84785723302271        0.40242785316727       -2.05275568725511
H            6.58943166463152        0.20113330384337       -2.26409388510084
H            7.60560836441971        1.61169337585866        1.03429686039162
H            8.18347395156919        0.92099196422691       -0.49107707029294
H            7.46795629282207        2.51627557748126       -0.48271269403818
H            5.99574532377934        3.54192319956657        0.63101986018115
H            4.06961422449269        4.83843703910100        1.36682067188378
H            1.82306467752537        3.79873855068234        1.42506168052887
H            1.55562704662168        1.42958654904636        0.79397507445320
H            3.45005123353854       -2.09492785108056       -1.76073183024135
H            1.38164120114618       -3.08338921614840       -2.73444899351067
H           -1.19924688505929       -3.07533897933169       -2.82022628530716
H           -3.32203279894909       -2.09354913930212       -1.94342076002921
H           -1.70362471669593        1.58763531911075       -0.74664104306224
H           -2.11224180403970        3.96458502777861       -1.14565079878926
H           -4.41263732292494        4.87190006623670       -0.93635625834042
H           -6.24344270461319        3.38946093729511       -0.31208386048968
H           -7.53580642769558        1.68754611265518       -1.22940033232716
H           -6.68811952916072        0.26013952838151       -1.82565897608979
H           -8.05440262799929        0.07859823970773       -0.72348459385083
H           -6.23187963787203        1.41418551842937        2.29588891550470
H           -7.78417382631898        0.77640297997553        1.75288993225779
H           -7.27101643270816        2.37682156330072        1.24494963508583
H           -7.75107036964345       -1.27218597752089        1.14818976911627
H           -7.10970188785090       -3.53420264839334        1.79438266506165
H           -4.72988159114021       -4.22237280243210        1.66635802037945
H           -3.05713134554638       -2.65431575744663        0.80305379143477
H            3.43087930305650       -2.72302458089493        0.91338334431400
H            5.36855166990044       -4.11510492049644        1.52255915214529
H            7.65128379403462       -3.17447330543067        1.37067897706280
H            7.98520537499815       -0.88687227976220        0.59939508219329
