74
 energy: -109.472578656922 gnorm: 0.000064460250 xtb: 6.7.1 (edcfbbe)
C            7.12833682098602       -1.62897602793229        0.33968530476352
C            5.77338641534637       -0.92660065259075        0.42130130685307
C            5.27524673495847       -1.01253227043623        1.87918654196781
C            5.85318531453894        0.53392947649256        0.02737338458262
C            7.03109580372276        1.25458324044203       -0.09578120542328
C            7.01330655062138        2.59911812139423       -0.42547631445569
C            5.80942585094102        3.24123474038394       -0.65771474645699
C            4.62611713716667        2.53664084459091       -0.56034210978281
C            4.64149623780704        1.19181052321326       -0.20210465819412
N            3.44765893841345        0.45481670673975       -0.16206469349318
C            2.29213934220846        1.00723245136573        0.34546783239715
C            2.39439025431104        2.01885094254233        1.34272749249351
C            1.25079452789821        2.54516932067704        1.86667526821248
C            0.00044793125177        2.08388795813517        1.41281179081442
C           -1.24978068998366        2.54590498526612        1.86625143564073
C           -2.39350707083470        2.02026035377693        1.34191108968401
C           -2.29151102008236        1.00853990828841        0.34473055241369
N           -3.44721081682972        0.45684138810412       -0.16319700419233
C           -3.53776636825199       -0.84279155027839       -0.70380004322677
C           -2.51905001513998       -1.39749092348285       -1.46820016375993
C           -2.67083431549114       -2.66250686160493       -2.00495993565225
C           -3.84408184796087       -3.36547749781749       -1.80585751221704
C           -4.86156631098076       -2.80951516660390       -1.04912368660422
C           -4.72430416372052       -1.55394432694276       -0.47902384245978
C           -5.77440034760659       -0.92262732856172        0.41901136915839
C           -5.27722382361401       -1.00872790875186        1.87721538273773
C           -7.12986240085449       -1.62393063010565        0.33667095960026
C           -5.85278895691607        0.53790680224629        0.02481982107979
C           -7.03004784393666        1.25948733919289       -0.09913662577918
C           -7.01098751965654        2.60396338748789       -0.42899896445295
C           -5.80645323484735        3.24508441334657       -0.66059596186576
C           -4.62376856695414        2.53955543865377       -0.56242491562093
C           -4.64043455071167        1.19478185153582       -0.20402485683953
N           -1.13358297666274        0.53873520867683       -0.06083907349834
C            0.00031057133425        1.04639809980730        0.43854016233437
N            1.13407024642847        0.53812977267170       -0.06052291350030
C            3.53750171007426       -0.84479700037578       -0.70284083926166
C            2.51880988201952       -1.39852953552102       -1.46797066516518
C            2.66990826005274       -2.66356905025614       -2.00486992571140
C            3.84246834094299       -3.36751826013537       -1.80517333499675
C            4.85993978035076       -2.81251172511290       -1.04771992711853
C            4.72333418184589       -1.55693524587122       -0.47747570323850
H            7.03468817600414       -2.66498883711627        0.65489312145747
H            7.83824621022852       -1.15184028933970        1.01101038184352
H            7.52263084765897       -1.59980704385506       -0.67361575771719
H            4.30385059845912       -0.53885367794988        1.99415858527234
H            5.18297034250112       -2.05486337587710        2.17694867170569
H            5.98174286614533       -0.51864183787459        2.54375725717528
H            7.98188202360239        0.77481997514247        0.07053291864873
H            7.94221697224910        3.14322025726328       -0.50696266828268
H            5.79149100944791        4.28583403061289       -0.93006763395176
H            3.68278092415178        3.01909521691894       -0.77035440306842
H            3.36469212709299        2.33486806598446        1.69275559026261
H            1.28982367263137        3.30560683809731        2.63550006050387
H           -1.28862317673772        3.30637577743623        2.63505272709554
H           -3.36374694011793        2.33687873659240        1.69156963985936
H           -1.61197865534180       -0.83977129808631       -1.61934281584547
H           -1.87215311695259       -3.09093608587528       -2.59154455849505
H           -3.97226212301379       -4.34878186734216       -2.23381398754731
H           -5.76598169023698       -3.37730771471442       -0.90203125864007
H           -5.18597259733458       -2.05108442020737        2.17520440481811
H           -4.30551560529057       -0.53581449126842        1.99270157020233
H           -5.98372713317218       -0.51415719250429        2.54127254147776
H           -7.52349886076042       -1.59461916488528       -0.67688172536653
H           -7.83980924011460       -1.14611206778424        1.00747014992070
H           -7.03724148638002       -2.65996388197744        0.65211508946865
H           -7.98131683835432        0.78050669840472        0.06667055766184
H           -7.93941354852671        3.14879704128388       -0.51111622655894
H           -5.78751791971029        4.28963345162771       -0.93307426156044
H           -3.67992442704183        3.02123197438287       -0.77193934252891
H            1.61228127453739       -0.84005343552879       -1.61957125674213
H            1.87124720731564       -3.09124977358295       -2.59202771777379
H            3.97011917349113       -4.35084826481712       -2.23322919242236
H            5.76381194132683       -3.38105365559734       -0.90018253276425
