  71
       -118.89754625
 O          1.5013953201       -4.2463472191       -1.5413864974
 C          1.3231012804       -3.1367455122       -1.0733962690
 C         -0.0255294224       -2.6350841650       -0.8015406265
 C         -0.4189006201       -1.3451590228       -0.8164619449
 O          0.4583430252       -0.3356947557       -1.0356581480
 C         -1.8238989441       -0.9693523327       -0.5938759401
 C         -2.1291945993        0.2024785766        0.1024334438
 C         -3.4391632162        0.5701887017        0.3292843414
 C         -4.4819826420       -0.2168583058       -0.1539420982
 N         -5.8176887121        0.1643362679        0.0633413915
 C         -6.2995766150        1.3806179935       -0.4320840707
 C         -5.5234438279        2.2235252297       -1.2176299767
 C         -6.0326402220        3.4221980111       -1.6938601017
 C         -7.3295681021        3.7931780443       -1.4039743982
 C         -8.1298409358        2.9458024094       -0.6525605115
 C         -7.6276699821        1.7480004738       -0.1781338598
 O         -8.4919954995        0.9479271127        0.5245001638
 C         -8.0100764864       -0.2486378195        0.9924415908
 C         -8.8915581614       -1.0410781164        1.7041702520
 C         -8.4709834343       -2.2478474582        2.2423527523
 C         -7.1587196379       -2.6430836834        2.0803531567
 C         -6.2715477947       -1.8533227264        1.3648523619
 C         -6.6862083363       -0.6593041087        0.7887372572
 C         -4.1843529366       -1.3831554837       -0.8575398806
 C         -2.8738146537       -1.7557367361       -1.0691611400
 C          2.4621845632       -2.2380861219       -0.7476292679
 C          2.5019766120       -1.5386047975        0.4552877336
 C          3.5779633096       -0.7286261234        0.7528000948
 C          4.6247520571       -0.5952334989       -0.1559793800
 N          5.7059264157        0.2642435102        0.1376643789
 C          5.4984081987        1.6381134527        0.2624990694
 C          4.2575130863        2.2232164590        0.0427051251
 C          4.0862801439        3.5933752795        0.1735253837
 C          5.1514659286        4.4010961880        0.5148461816
 C          6.4036112976        3.8354059302        0.7082973082
 C          6.5809987482        2.4710766783        0.5773850188
 O          7.8537529940        1.9886665468        0.7543676730
 C          8.0430226158        0.6346196076        0.6164877119
 C          9.3274536632        0.1595676339        0.8013086397
 C          9.5917057975       -1.1992835122        0.7071524379
 C          8.5594583155       -2.0761457934        0.4435897659
 C          7.2689263034       -1.6046106827        0.2557194925
 C          6.9933969161       -0.2446824060        0.3186284364
 C          4.5980626283       -1.3085420584       -1.3501606343
 C          3.5300205290       -2.1363301860       -1.6332691892
 H         -0.7764304552       -3.3986113360       -0.6695188514
 H         -0.0163752745        0.5018108933       -1.1170338636
 H         -1.3362074447        0.8124082837        0.5151175567
 H         -3.6637934128        1.4657871138        0.8890763660
 H         -4.5143237463        1.9380153948       -1.4703524868
 H         -5.4039575378        4.0587862823       -2.2972822068
 H         -7.7287932820        4.7270065460       -1.7665557773
 H         -9.1545482917        3.1935328130       -0.4268850992
 H         -9.9032031032       -0.6904691147        1.8310850393
 H         -9.1664997802       -2.8609204976        2.7932053182
 H         -6.8092205190       -3.5682238639        2.5118462873
 H         -5.2445188510       -2.1672687431        1.2639302911
 H         -4.9906067310       -1.9864673075       -1.2468264013
 H         -2.6569499805       -2.6465320604       -1.6374087027
 H          1.6951935948       -1.6468225204        1.1652327507
 H          3.6183831334       -0.1902633243        1.6885604236
 H          3.4215340770        1.6027540527       -0.2408086806
 H          3.1106422612        4.0220159724        0.0010830671
 H          5.0225814555        5.4666602427        0.6216504735
 H          7.2606635236        4.4403192668        0.9576501720
 H         10.1076699210        0.8698089019        1.0240225041
 H         10.5977238652       -1.5606038497        0.8508965046
 H          8.7455557780       -3.1375102623        0.3849751332
 H          6.4678958144       -2.3016298924        0.0659963302
 H          5.4149165684       -1.2061765252       -2.0493606062
 H          3.4997811517       -2.6971712615       -2.5552678351
