71
 energy: -118.897483804988 gnorm: 0.000063870920 xtb: 6.7.1 (edcfbbe)
O            1.39489439188579       -4.48592252870201        0.47762011468920
C            1.24978294256165       -3.28801899435476        0.31093794396138
C           -0.08287020829199       -2.70004072085207        0.16801037584915
C           -0.45511417911783       -1.44725050950851        0.50487181492962
O            0.42469429661205       -0.56693240057530        1.03857777421326
C           -1.84921301818079       -1.00297271189289        0.35454842537678
C           -2.41449414897899       -0.10739408736426        1.26488141269651
C           -3.72220672722624        0.31107114354266        1.12769942977428
C           -4.49713093233095       -0.14673020548460        0.06504718732460
N           -5.82917886225699        0.27964445795952       -0.08003719532790
C           -6.12774321081045        1.63094212663950       -0.28172316106045
C           -5.14031031405177        2.60043395565216       -0.40213593612208
C           -5.47105962850043        3.93135555894394       -0.60783143826022
C           -6.79297085678605        4.31393907211869       -0.70844107795606
C           -7.78988697746369        3.35354958908561       -0.62437831005938
C           -7.46520159273044        2.02490585290654       -0.42183189385526
O           -8.50460258760164        1.13084528002140       -0.38601182703710
C           -8.19607389479526       -0.19339112727750       -0.20009172933635
C           -9.25439951291318       -1.08225160976203       -0.15961069001961
C           -9.02700279914451       -2.43241277362801        0.06032962785783
C           -7.73697695507374       -2.88092740231257        0.25805135271383
C           -6.67194076846594       -1.99398588972940        0.21571873710070
C           -6.87971870203757       -0.64409060727697       -0.03719553247120
C           -3.93713616806651       -1.03464709716187       -0.85268535659685
C           -2.63358898536082       -1.45754640651114       -0.70724925279422
C            2.42299016950247       -2.37813975188625        0.22295704267400
C            3.51769236752212       -2.60742094950470        1.05113525393312
C            4.63175128547863       -1.79552474603946        0.98243222538215
C            4.67357507709797       -0.75396890005798        0.06111093244111
N            5.80453173606867        0.08949316682377       -0.00957957254729
C            5.70177600310986        1.43530299918606        0.34127733200122
C            4.51792381384841        1.98929640271500        0.81182814597457
C            4.45164959709676        3.33085256342796        1.15785127794334
C            5.56660924841674        4.13612275060591        1.04879809369896
C            6.76315446894582        3.59122669133635        0.60488301997448
C            6.83595996513357        2.25504858513813        0.25988926830035
O            8.05911795985952        1.78118557474825       -0.14503719956008
C            8.14546100868435        0.44994262757685       -0.47495920775085
C            9.38030694114543       -0.01635854970088       -0.88392230722437
C            9.53855114719959       -1.34293018024586       -1.25897537098945
C            8.45073943743760       -2.19145797809967       -1.23450518058303
C            7.20951276960615       -1.72921788877926       -0.82341434074272
C            7.04086843664051       -0.41062904345675       -0.42113445038253
C            3.59615642290263       -0.54415566147483       -0.79545658972266
C            2.47893173132255       -1.34936693910636       -0.71320453814360
H           -0.85129396549882       -3.40028009382907       -0.12130320979351
H           -0.00645250609898        0.28433628543195        1.18880309699843
H           -1.84757795337239        0.23205897951886        2.12205063844292
H           -4.15593927341058        0.98663867159130        1.84978895718733
H           -4.10182096872697        2.31370488628291       -0.34595644370359
H           -4.68237897168160        4.66295068615957       -0.69302213384778
H           -7.05618575217007        5.34805517286268       -0.86405626986429
H           -8.83157109766493        3.61451276374134       -0.72039320454738
H          -10.25109806867902       -0.69460585533089       -0.29673402197853
H           -9.85835710375028       -3.11871226876155        0.08760430683961
H           -7.54476935021392       -3.92480660153346        0.45181011501264
H           -5.67144213411310       -2.35700665800001        0.39122376008290
H           -4.53203734735442       -1.37997845646445       -1.68487560392234
H           -2.20434952374934       -2.12607081765933       -1.43692197193877
H            3.47339948586146       -3.42138746007128        1.75895272297435
H            5.47404044744339       -1.95947299598062        1.63834906258748
H            3.64470818802919        1.36410788265767        0.91613666723841
H            3.51871857663387        3.73718725928161        1.51808136514117
H            5.51962264097272        5.18050053148471        1.31431329229394
H            7.65677677157093        4.18922768679719        0.52416686115732
H           10.20628842654282        0.67647273644221       -0.90694301682729
H           10.50659734374308       -1.69816420116207       -1.57520026803152
H            8.55445404263761       -3.22170279796137       -1.53838576978986
H            6.36304446408060       -2.39793756267892       -0.82204315356544
H            3.64700852467326        0.25276074158008       -1.52315205065542
H            1.65280491636906       -1.19386325203597       -1.39134035770790
