71
 energy: -118.828719306409 gnorm: 0.000083413958 xtb: 6.7.1 (edcfbbe)
O            1.54738140791980       -3.97114384941371       -2.00035695560038
C            1.31110775829285       -2.88688080799120       -1.41854924877503
C           -0.01085751317049       -2.45454676446270       -1.17938009036605
C           -0.45834259705167       -1.17289813704553       -0.83036030638026
O            0.48480597492832       -0.17530502330457       -0.72715645719315
C           -1.81975606500784       -0.86510739694411       -0.57266933145168
C           -2.20346762796517        0.37438811589295        0.01681950894661
C           -3.51538378240233        0.70221915051207        0.22967261509003
C           -4.53718893121184       -0.18654182086848       -0.11984436023589
N           -5.89039319727977        0.15668690859071        0.09332578675515
C           -6.45497006733304        1.24031813734460       -0.56670656172201
C           -5.74287504765660        1.99697663743298       -1.49515838183957
C           -6.33289824523858        3.07579258591397       -2.12876424276347
C           -7.64661323110331        3.41630159242438       -1.85872209880342
C           -8.38156903956278        2.65576131649376       -0.96386428539572
C           -7.79888365765960        1.57338594575890       -0.32756875985157
O           -8.59099927497971        0.84600373835937        0.51747329665922
C           -8.02789532948156       -0.23168980720451        1.14477266700671
C           -8.83972020573180       -0.96120592901505        1.99600260667836
C           -8.32581949220128       -2.04465811387682        2.68972542746259
C           -6.99163460367295       -2.38133706662557        2.54289677355728
C           -6.17429454053956       -1.65835567425165        1.69275617102932
C           -6.68087213777456       -0.58632247337047        0.96087616133845
C           -4.19083531161580       -1.42550505302455       -0.67770770628785
C           -2.88243572483771       -1.75493311586925       -0.89423343906248
C            2.46260075253539       -2.04735467275376       -0.99653337282210
C            2.54460107667346       -1.54050971832298        0.29884973976456
C            3.63849094294075       -0.79364192600676        0.68420371284108
C            4.66538838813882       -0.55014055954735       -0.22147946424459
N            5.77386983629258        0.25002474737181        0.16797371208937
C            5.61608468384940        1.61605091204054        0.34707469092834
C            4.39637900384856        2.25337797978444        0.13578708027100
C            4.27591140880651        3.61921195461291        0.32437332829586
C            5.36668975067187        4.37283222479708        0.71956480029059
C            6.59251284684340        3.75711126864029        0.91701235452371
C            6.72266360673867        2.39233232115672        0.72980596813241
O            7.96371298968924        1.84746305876719        0.92279079202252
C            8.10326020222393        0.49835914362906        0.73123955913518
C            9.36101763408660       -0.04389388074621        0.92690237815540
C            9.56442988226875       -1.40533483208128        0.76563149519961
C            8.50291584674832       -2.22193377691865        0.41840599809995
C            7.24185576550846       -1.68756394584492        0.21982343982928
C            7.02344245638807       -0.31994386982638        0.35992504127973
C            4.60866346831417       -1.08360511336310       -1.50430296220941
C            3.51760589111549       -1.83947639692531       -1.88102367418096
H           -0.75737543307669       -3.19504178947965       -1.41711234966661
H            0.03531612872523        0.67559419861335       -0.67041612940096
H           -1.45199157637959        1.07332791793773        0.36099711208919
H           -3.77180258841764        1.64389711911402        0.69494795610867
H           -4.72467594042056        1.72697640347930       -1.72464086614498
H           -5.75907801149549        3.64788987255262       -2.84119789987469
H           -8.10604930098796        4.25982652534643       -2.34883044980477
H           -9.41371478313930        2.88040881719978       -0.74799117881579
H           -9.86903756365539       -0.65910108874889        2.10405158148659
H           -8.96471475558215       -2.61081705623024        3.34859436184698
H           -6.57671853478822       -3.21024211303706        3.09485225136037
H           -5.13224276068396       -1.91736111876621        1.59656474749929
H           -4.97735025947043       -2.11163139103165       -0.95788160881921
H           -2.66052141582596       -2.70382014631283       -1.35226075608308
H            1.75188337770959       -1.74084822085710        1.00275387291129
H            3.70807615889216       -0.39369512288657        1.68585769263993
H            3.54581005462681        1.67101661112374       -0.18142407493736
H            3.32125907177483        4.09337304290051        0.15686944796439
H            5.27248950313654        5.43680671995326        0.86837773365078
H            7.46363661144358        4.31888814166944        1.21360820451587
H           10.16561939168504        0.61656889040090        1.20780395880283
H           10.54778698411774       -1.82084247010828        0.91827644827379
H            8.65005211458612       -3.28425883802059        0.30176033455370
H            6.41576012021447       -2.32938776096935       -0.04192410853931
H            5.41751876474517       -0.89701523339963       -2.19604443812034
H            3.46090026344660       -2.26493092265415       -2.87137339406445
