107
 energy: -133.612513702234 gnorm: 0.000073497564 xtb: 6.7.1 (edcfbbe)
C           -4.74361264472881       -1.16322034844663        1.73536661618033
C           -4.99648110822775        0.23549925799148        1.15686944858263
C           -5.66024407077742        1.07307580204633        2.25825954454865
C           -5.99547276617611        0.11311591742758       -0.00648062245418
C           -3.71072555039765        0.87991859745951        0.64934372003871
C           -3.40101863708826        2.15496705326658        0.90346650590521
C           -2.20797269840898        2.76798386723149        0.37272370664818
C           -1.37549947884422        2.10563229822291       -0.42641304248074
C           -1.59843226984237        0.68779530995049       -0.90914571602358
C           -2.08122371405405        0.90058922886472       -2.42712713055862
C           -2.27387602263564       -0.39051662571147       -3.24493722540597
C           -1.24686101846090        1.90693032637036       -3.24429024173829
C           -3.47622665143251        1.57540567468845       -2.39583735488854
C           -0.17347069134458        0.01235153253246       -0.42659534068184
C            0.18783702185342       -1.61489268204360       -0.26389166715471
C           -0.65635638864414       -2.74041293024341        0.52185918039164
C           -1.04668356493531       -2.44194800147669        1.97872731260336
C           -1.91167002491616       -3.21632716523370       -0.23936799227939
C            0.21231671603759       -4.01725563678347        0.62781965667614
C            0.26632324762089       -2.23874572157079       -1.62944414001123
C            1.33723235839943       -2.86821256248850       -2.11180908251684
C            2.57787438554844       -2.96049868829069       -1.38164040989330
C            2.71003247272291       -2.40589215050705       -0.17462733290175
C            3.98908939470922       -2.48066070559565        0.64719474169040
C            3.76258863496702       -3.34682417076757        1.89681057529319
C            4.42206442637706       -1.07288205082693        1.08360106841624
C            5.14638978366090       -3.09859384823548       -0.14711423504253
C            1.59564081987265       -1.57217278232402        0.40884509716803
C            0.93641654525415        0.48482972361256       -1.38646279699622
C            0.99589391638750        0.02021534052814       -2.69655629003377
C            2.00798355498026        0.33102837330366       -3.58778414096316
C            3.02531998506233        1.17645351803334       -3.19351242374051
C            2.98766542123378        1.69695439666802       -1.92045854256215
C            1.97036149212083        1.36142228252338       -1.01900261462711
N            2.04263968967679        1.90338646169887        0.24992252344669
C            2.92227347848545        3.00205613085387        0.48250703538417
C            2.49736484500448        4.28850475172495        0.17538916799257
C            3.34038598819642        5.36460505969777        0.39071580719543
C            4.60714264543648        5.16173862914767        0.91281792177118
C            5.03086218689384        3.87927337360651        1.22116282792691
C            4.19287960258815        2.79877832373900        1.00759279171611
C            1.13128015369829        1.54740703558130        1.22757583923422
C            1.32458124701790        2.09820101008546        2.49873921195289
C            0.45350614749143        1.85412366300599        3.53483832057726
C           -0.64815102559451        1.06355081615511        3.28185225644962
C           -0.82528596523857        0.50957421039101        2.02736998671371
C            0.04896023292339        0.68557307604881        0.95797316574614
C           -2.79710936026038        0.01282399618541       -0.18826934956323
H           -4.35338230219134       -1.84467903437411        0.98595941567894
H           -5.67855548786903       -1.57930222288710        2.10636010081945
H           -4.04903510628437       -1.10795832606468        2.57121578162569
H           -4.96411486356199        1.26618868783437        3.07156005209454
H           -6.02198330769930        2.02188467729184        1.87000787395928
H           -6.51480303177166        0.53331200063077        2.66202334453402
H           -6.15993612078964        1.08344134240954       -0.47038755554962
H           -5.63996528314634       -0.58212739683645       -0.76323998390504
H           -6.94981997966111       -0.25650853678484        0.36359963350563
H           -4.03122144278354        2.78812109503516        1.50624959755407
H           -2.00158664197138        3.79110199804708        0.65910319606294
H           -0.49603915780455        2.59379754585337       -0.81823294527755
H           -3.11843888078577       -0.26596008038979       -3.92155096532344
H           -2.48781781081043       -1.24794347659324       -2.61446013723360
H           -1.41547923141978       -0.62206402691307       -3.86654523968080
H           -1.44380968155693        2.92191565191357       -2.90556723062390
H           -1.55258580395931        1.84429027623283       -4.28786375038515
H           -0.18049326899511        1.73770902780934       -3.20102984494776
H           -4.27396126059922        0.90148971876574       -2.10751485812941
H           -3.70502820683983        1.93245224882891       -3.39911380546329
H           -3.49144400931773        2.43133862949639       -1.72952562814947
H           -2.01913876629935       -1.97222250518935        2.06005771807394
H           -0.31339146535820       -1.82145244181531        2.48454577037848
H           -1.11435195226857       -3.38234249935734        2.52443180063622
H           -1.63964055697070       -3.92936541462988       -1.01458644516233
H           -2.57403434605052       -3.73011290629828        0.45579703682008
H           -2.46569809946575       -2.41467767600219       -0.70703781766800
H            0.63009148567616       -4.31445861074185       -0.32735914360025
H           -0.42184821243623       -4.83124137921768        0.97743345094777
H            1.02248536839996       -3.90581086707101        1.33879450144586
H           -0.65005793514585       -2.24915523826709       -2.19296261447028
H            1.29715457951456       -3.34382432068247       -3.08334694869209
H            3.37091841995177       -3.51963766154110       -1.85081372267614
H            4.68936806276892       -3.43154039218351        2.46105365476840
H            3.44264635315589       -4.34705404110759        1.61170203553004
H            3.01129872122375       -2.91205891324266        2.55176874544773
H            5.39579356466590       -1.11922050683375        1.56840532557712
H            4.50022968619687       -0.42277124986623        0.21363846409245
H            3.71615543358242       -0.64087575896696        1.78873918823305
H            6.05097833087983       -3.09013096714427        0.45813737389629
H            5.33871540186820       -2.53088231923545       -1.05485822375223
H            4.93302886891479       -4.13124042281336       -0.41232082459214
H            1.48576989368529       -1.80419735571577        1.46847716159209
H            1.98438130139461       -0.55925027414335        0.37853634276143
H            0.20697237459979       -0.59644195718504       -3.06544368035204
H            1.98543398048053       -0.08140599571968       -4.58550188465703
H            3.83113981607265        1.43712861102931       -3.86398077932852
H            3.76739019486573        2.37081780510397       -1.60006939816477
H            1.50702519126604        4.43700701518634       -0.23024016081539
H            3.00621255541884        6.36310444837675        0.15017368016613
H            5.26385640106670        6.00245476422276        1.07997065554109
H            6.01769687143168        3.71787751145988        1.62933849638175
H            4.51525665051081        1.79702780581056        1.24727004906743
H            2.17628833498135        2.73923481844068        2.66544526251949
H            0.62667048698333        2.28858860532091        4.50853712656811
H           -1.37893297741258        0.87215667953081        4.05379966338984
H           -1.72618501053323       -0.04353229666275        1.90365286775695
H           -2.41692754941704       -0.78156509293964        0.44018784214608
H           -3.41978232068969       -0.48413476728024       -0.93099795858590
