168
 energy: -259.245060293897 gnorm: 0.000133685220 xtb: 6.7.1 (edcfbbe)
C           -0.19851432505660      -10.55564171338472       -0.20961338178416
C            0.77535084494625       -9.79789569406910       -0.84129347349596
C            0.76895861577932       -8.42186326584263       -0.73785751140532
C           -0.21822208265984       -7.77778416236264        0.01317022361766
N           -0.22898722215317       -6.39387604188126        0.11964643730680
C            0.95481678215211       -5.64714943252347        0.01164424902619
C            2.10580051821188       -5.99576801257203        0.71861766849194
C            3.22709197656717       -5.19344618718924        0.65108985910724
C            3.24392991634997       -4.05308084728535       -0.14902108147024
C            4.42264072861218       -3.17153393708156       -0.20172898377662
C            5.06764096270421       -2.91159067154819       -1.40721363658612
C            6.14441738991605       -2.04801094041993       -1.45732132593252
C            6.56757347735638       -1.38899658200609       -0.30750460975257
C            7.63435160412782       -0.38998158407716       -0.37197160746743
N            8.86614397153984       -0.59533215743162       -0.74770737714357
C            9.50085406654886        0.60283111533367       -0.60251026613012
C           10.87233310861410        0.89799417124617       -0.83544278864746
C           11.76424219515046       -0.09098708794489       -1.26394922027748
C           13.09140482989884        0.20512693869995       -1.44799900517145
C           13.54464553975427        1.49960148285915       -1.20063730932519
C           12.67572754629911        2.48117713249339       -0.78525195940934
C           11.30996377863875        2.22102470330305       -0.59406930376438
C           10.36272321056765        3.24412512737541       -0.18685392882828
C           10.74871038484348        4.58110031868152       -0.01367638119919
C            9.84857134826711        5.56121863548695        0.33113293282133
C            8.50389595582540        5.24736108729508        0.50276894638853
C            8.08524028769838        3.94891412268831        0.35017751939838
C            8.99292288721383        2.93017336853775        0.02755320585135
C            8.61192751044684        1.56945823690589       -0.13648415902856
N            7.41217849278330        0.91423418298214        0.01680158546580
C            6.15702082699907        1.35659837732710        0.47125174082729
C            5.04551472522133        1.16885716725174       -0.34481900677190
C            3.78261490674985        1.44186937763245        0.13111077040242
C            3.60302254244491        1.91511041079032        1.43205374531606
N            2.31482538695454        2.10168542888525        1.94087925962016
C            2.04207605989143        3.21667355585764        2.74135750611107
C            2.62607065037250        4.44664234861005        2.44022529412819
C            2.36570274860876        5.55222551985772        3.22578175182371
C            1.51689333758893        5.45306840285141        4.31586579797730
C            0.93499258231100        4.23318372445653        4.61962494141754
C            1.19612217732417        3.11961880912979        3.84500099383325
C            1.33806090394131        1.13541128444198        1.67748892485290
C           -0.00896809298207        1.48324449937060        1.57839104263595
C           -0.95426547323971        0.51974255538326        1.28234936310609
C           -0.57472244830199       -0.79461009331055        1.06838331714016
C            0.75842420026503       -1.14854554931291        1.18248056764024
C            1.70866038017116       -0.19786552809147        1.49408171662994
C            4.72638534317863        2.16016944837820        2.22354426067948
C            5.99091179333260        1.87149427871022        1.75336883800391
C            5.93403295884972       -1.65859299935623        0.90318417775370
C            4.88710413682774       -2.55622326559446        0.95726756069212
C            2.10361097219103       -3.73017033740787       -0.88254064884330
C            0.96734486305273       -4.50434718769365       -0.78887246994221
C           -1.40043787846646       -5.67460476761477        0.34545906682020
C           -2.61095632721473       -5.97616493787298       -0.30325295215703
C           -3.71042702457538       -5.17868772371881       -0.13629012548666
C           -3.68156843699243       -4.02234320110891        0.68894134480078
C           -4.74902440093895       -3.08476385605834        0.73040671391210
C           -6.08827539890756       -3.39310298684798        0.34094114276377
C           -7.05785001342005       -2.44348320226861        0.27746000462690
C           -6.75753740792276       -1.06799012015526        0.50694542483713
C           -7.71028192541252       -0.06637088336096        0.25711527411767
N           -9.03611847114606       -0.21821075801983        0.31601482829589
C           -9.56042202238145        0.99250169785964        0.11290055717670
C          -10.93599832747807        1.36352533950955        0.14027656219472
C          -11.92434186066298        0.41879181556694        0.42901576185770
C          -13.24838347049860        0.78784275490494        0.47558243851293
C          -13.59299807842622        2.11428281605088        0.23575216214942
C          -12.62660420622764        3.05331683542290       -0.05366959628120
C          -11.26772601215611        2.71482679859354       -0.11711372461891
C          -10.22940994901030        3.67955184588684       -0.43666533686178
C          -10.52671872613410        5.00971195960705       -0.74788566040807
C           -9.54778340985252        5.92546125507277       -1.06614181199682
C           -8.20864540087994        5.53821067475343       -1.09524130594937
C           -7.86949121698507        4.24540942388594       -0.79456852886431
C           -8.85222852475566        3.29454693710959       -0.45414920979165
C           -8.54894654210792        1.95514930981903       -0.14080539651328
N           -7.36485085527798        1.27283114045544       -0.03479517816746
C           -6.08844685110077        1.56582978364022       -0.55575809144717
C           -5.68796043839224        0.89455223144319       -1.70862006592180
C           -4.38900812004375        0.98339280562584       -2.15224269238849
C           -3.44195249630324        1.71695601213284       -1.43365931728065
N           -2.09661805205868        1.65292441477982       -1.80423622721478
C           -1.25736876717880        2.75988552436233       -1.64105809406161
C           -1.75408016904301        4.05045682393001       -1.82606424986961
C           -0.93664855656520        5.14753817362058       -1.63590593120044
C            0.38893550378619        4.98082909530367       -1.27076760696640
C            0.89397693992922        3.70166146605798       -1.10773697589302
C            0.08318648116683        2.59858649229379       -1.28972829578215
C           -1.58506835386351        0.42843410307946       -2.26053637530958
C           -2.07527032656214       -0.77781698477114       -1.75828982433700
C           -1.57596033417113       -1.98101179237279       -2.21541510317536
C           -0.57356575257499       -2.00655021520993       -3.17129913270263
C           -0.08274924721365       -0.81297439332154       -3.67422642065474
C           -0.58559974085965        0.39563538253888       -3.23204133059587
C           -3.86682069849607        2.45507365986538       -0.32620588719837
C           -5.17684843058893        2.38597059269532        0.10494774954853
C           -5.45551148714593       -0.77311255982338        1.00520946803777
C           -4.51483121430072       -1.73838415459418        1.14094299714520
C           -2.47984220607264       -3.80718232071125        1.41846702098574
C           -1.37608335189899       -4.58737792163436        1.23559814586163
C           -1.19340017706253       -8.54710031012714        0.65374638609774
C           -1.18032650892530       -9.92195787725867        0.53613349197907
H           -0.19135760588645      -11.63121753964025       -0.29658190793703
H            1.54202693671562      -10.28316054633769       -1.42702280775097
H            1.51960972615933       -7.83357804457233       -1.24490209665261
H            2.10238217833799       -6.88239154134135        1.33576573947695
H            4.10823419557695       -5.45340076159969        1.21936546221247
H            4.72363572105582       -3.40029188832184       -2.30740809594008
H            6.65311753124651       -1.85799976738366       -2.39048298557293
H           11.37329684181250       -1.08214087022961       -1.43401334594266
H           13.78395143811706       -0.55580166807192       -1.77645677502874
H           14.59038868105733        1.73554742499725       -1.33633561720190
H           13.07275035147852        3.46734361613031       -0.60329055847722
H           11.77807499002700        4.86554921306208       -0.16077349643626
H           10.18396723192525        6.58030414060568        0.45632078676038
H            7.79257690923682        6.02140071613274        0.75079467311769
H            7.03939512129431        3.70927830316936        0.46406572649909
H            5.17842421629057        0.79685888582306       -1.34931530376119
H            2.92206518964090        1.26891329226320       -0.49682737179013
H            3.28200174488456        4.52806413990068        1.58564652646004
H            2.82259124520434        6.49961263257746        2.98046430738850
H            1.31166534957934        6.31973289383457        4.92543711499275
H            0.27878677607199        4.14507361442758        5.47296454186857
H            0.75184394004250        2.16672082903710        4.09225290490159
H           -0.30456949448282        2.51277295592508        1.71624926149817
H           -1.99389386655115        0.80280612634279        1.20176702873766
H           -1.30265591562920       -1.54478741609814        0.80885274250784
H            1.06063504263963       -2.17369241966173        1.02896231338176
H            2.74574903070894       -0.48500069122235        1.58888599391505
H            4.59693515038632        2.54376451578367        3.22456558817777
H            6.85393640822963        2.02036299390077        2.38572834816174
H            6.26899521271134       -1.16638618835119        1.80505191667555
H            4.40117094224275       -2.76508672123810        1.89989100355409
H            2.10197002298180       -2.84879671711252       -1.50756811333728
H            0.07691261708963       -4.23168195084878       -1.33381387989793
H           -2.64938077054565       -6.82276483640649       -0.97410790043172
H           -4.60479581371946       -5.40168074821266       -0.69698700539367
H           -6.34235131203992       -4.42005507029133        0.12395426301570
H           -8.06943706575213       -2.69380651624826       -0.00224422492182
H          -11.61035917745775       -0.59625431072944        0.61645726492033
H          -14.01429281553465        0.06039672439991        0.69953008267219
H          -14.63025242737943        2.41461550667132        0.27671202265430
H          -12.94358790842661        4.06908584144758       -0.22938431396501
H          -11.55156495394904        5.34494784529897       -0.74827177008071
H           -9.81929866653411        6.94419283744172       -1.29981519429014
H           -7.44345999096444        6.25469597308539       -1.35571405472115
H           -6.83564057176969        3.94062145215297       -0.82931409865616
H           -6.40420356753898        0.28659507241151       -2.24108088956183
H           -4.08676017185020        0.45373724855431       -3.04287077940014
H           -2.78360048843216        4.18632605241972       -2.12368020153166
H           -1.33709644917399        6.13999199029580       -1.78132795137147
H            1.02428866730375        5.83997080889020       -1.11961278153065
H            1.92797407529253        3.56243844625097       -0.82870207706320
H            0.47610530902344        1.60265771305762       -1.15099147227081
H           -2.85794989964361       -0.77270721768667       -1.01474270195443
H           -1.97843736854521       -2.90117852601936       -1.81567609436030
H           -0.18330433901770       -2.94649897861706       -3.53201190146049
H            0.69029896716053       -0.82168959744575       -4.42880776649387
H           -0.21176223253369        1.32172450900297       -3.64376337382836
H           -3.15414601218154        3.05237735866949        0.22317073768158
H           -5.48346612843639        2.92389119121724        0.99094523693675
H           -5.23345203646252        0.22904311971648        1.33546505277866
H           -3.55141854984867       -1.46165677816950        1.53930567276504
H           -2.44701975832529       -3.03654406385225        2.17192711937774
H           -0.47398046324988       -4.39419083013580        1.79884282191641
H           -1.94642423368434       -8.05719410519190        1.25291997865147
H           -1.93753653436760      -10.50525268432977        1.03879109752823
