168
 energy: -259.328728195548 gnorm: 0.000070809810 xtb: 6.7.1 (edcfbbe)
C           -0.22920887815169      -10.52854282750706       -0.03736702095927
C            0.82302370803820       -9.79685735549620       -0.56280852466340
C            0.85064911449909       -8.42143182009822       -0.44447660521390
C           -0.17914131469699       -7.75160735860331        0.21808557921546
N           -0.15991034324271       -6.36853639999141        0.35080734916892
C            1.03029835529042       -5.62819031741772        0.28023638451127
C            2.16617673558105       -5.98798222887525        1.00287257257336
C            3.30343482451995       -5.20539712477088        0.94183379210107
C            3.34557100986193       -4.06999696704567        0.13870250549341
C            4.53614994065599       -3.20225539608361        0.07170415649892
C            5.21694625181230       -3.02633520938683       -1.12874950819561
C            6.27861295387596       -2.14704101294917       -1.21327458121385
C            6.65113958314507       -1.39275225262550       -0.10534058656797
C            7.67499890776792       -0.35599213882234       -0.23064211884029
N            8.91527778892493       -0.52614321768731       -0.59480543695199
C            9.48674885739364        0.71109080395222       -0.54843327139677
C           10.83853289801957        1.05848269593724       -0.82055480766741
C           11.77852056494865        0.08661609210119       -1.17998037046216
C           13.08512684627106        0.43741136872080       -1.40915032677479
C           13.46921719504280        1.77058924253910       -1.27705190122770
C           12.55260140444266        2.73506170053417       -0.92979703209107
C           11.20553969226417        2.41853879422853       -0.69560943780790
C           10.20792075710080        3.41940300909433       -0.35983477381242
C           10.52307081663888        4.78451000400095       -0.29905453909793
C            9.57448420452297        5.74052368881887       -0.02357987618449
C            8.24997020940227        5.37100485683997        0.18893033835009
C            7.90035484892388        4.04419519491085        0.14633478323359
C            8.85854891028333        3.05183608719079       -0.10459737512667
C            8.54930683400637        1.66422762234069       -0.15544727075182
N            7.38536175318564        0.96178709977379        0.05554478443969
C            6.10830241603559        1.37616850149551        0.47470227544600
C            5.00990784322768        1.07923808724009       -0.32654405665187
C            3.73379010354948        1.33584375897955        0.12307163556567
C            3.52672180641375        1.90321447993771        1.38154449226279
N            2.22902686372203        2.09413928991103        1.86352073903255
C            1.92132363323112        3.25603901537477        2.58099822259081
C            2.48041702410179        4.47626758687320        2.20314638858240
C            2.18565873583778        5.62576103722479        2.90955532764508
C            1.32664566978983        5.58033810589302        3.99521404883324
C            0.76825392680493        4.37058227842411        4.37417129405073
C            1.06369197354771        3.21395115848369        3.67904086735437
C            1.27151546755198        1.09617756910518        1.65406562620212
C           -0.07674077066415        1.41725863096491        1.49719813029201
C           -1.00399942311861        0.42157983778112        1.25568713686866
C           -0.60566232368200       -0.90129909757651        1.16008743120488
C            0.72805096746180       -1.22777278532767        1.33559265592724
C            1.66100690821889       -0.24244184134471        1.58645044340810
C            4.63464882222151        2.24782599507857        2.15778392335429
C            5.91270783161324        1.97588248393775        1.71514391504714
C            5.99329861937029       -1.59086953101426        1.10581922731919
C            4.95902125447108       -2.50087055327954        1.19610381018657
C            2.21600956016793       -3.72652209135701       -0.59850874269468
C            1.06753531567022       -4.48494178318914       -0.51669942579681
C           -1.34418241825821       -5.62885044902765        0.49740805993475
C           -2.43048271433155       -5.79783158483058       -0.35878053890854
C           -3.53554428899767       -4.97786886744399       -0.24880942003189
C           -3.60898385354443       -3.98581340788803        0.73127629151734
C           -4.72109363524270       -3.02899823527027        0.76444789241954
C           -6.00401942992005       -3.35383912268174        0.32108657301329
C           -6.99541183568114       -2.39551560059815        0.24112737842489
C           -6.73409554486320       -1.07645387452974        0.60251680906209
C           -7.72355297665055       -0.02663053875309        0.39845434416325
N           -8.98790966853377       -0.07289806477840        0.72383136959348
C           -9.50786201160890        1.13218773765059        0.36115884967807
C          -10.84319979183261        1.59600261211907        0.51997661060046
C          -11.82131136473886        0.79639982499360        1.12077393539627
C          -13.10131928361591        1.26568229309014        1.27685720140024
C          -13.41891563461111        2.54794241227634        0.83304441218416
C          -12.46623021678005        3.34192369196774        0.23882867509406
C          -11.14751818772599        2.89757966977868        0.05701668326996
C          -10.12557264841563        3.70925157445995       -0.58135377108729
C          -10.40077761142643        4.98951409103268       -1.08273623419840
C           -9.43918393147040        5.75113450199341       -1.70372530141745
C           -8.14710692657819        5.25871355447883       -1.86084921379070
C           -7.83427103574443        4.01108850178898       -1.38132173113390
C           -8.79787754495977        3.22577419700398       -0.73344934312324
C           -8.52238549859316        1.93042920744784       -0.21806051998085
N           -7.37493841506915        1.17769548635073       -0.17948206918073
C           -6.09023313926359        1.40720264133645       -0.71583031935976
C           -5.68551601995516        0.66029674581208       -1.81684347369460
C           -4.37845198192516        0.71245550775309       -2.24776961500668
C           -3.43503096548028        1.48668707950512       -1.56806844116824
N           -2.08898629528602        1.41129458662639       -1.92628699875899
C           -1.25282576659939        2.52779912655752       -1.80198033728483
C           -1.74572435889786        3.80721758965445       -2.05804496881617
C           -0.93095596518591        4.91251116584122       -1.90673987511690
C            0.38828294262350        4.76354757950150       -1.51237179068151
C            0.89022532345399        3.49390640600532       -1.28066875905847
C            0.08124443373579        2.38332922005614       -1.42173824349068
C           -1.56360404492714        0.17360032088020       -2.32952280042620
C           -2.03786311016688       -1.01475759780480       -1.77374539391257
C           -1.52456464730089       -2.23025008616250       -2.18040844058371
C           -0.52161040959509       -2.28443786705856       -3.13447201077918
C           -0.04413516559765       -1.10782337334624       -3.68750228837649
C           -0.56299658295201        0.11212903162277       -3.29808937758619
C           -3.86599187571658        2.29081587666812       -0.50936076027709
C           -5.18039620109753        2.25499453424788       -0.09096321912586
C           -5.48204425040764       -0.76584351309805        1.12942812974208
C           -4.49506733120403       -1.72253741346709        1.20153374588443
C           -2.54493627634799       -3.87793641371767        1.62988834995007
C           -1.42441007638697       -4.66935270549910        1.50503933537567
C           -1.23560964594637       -8.49420207133517        0.74849596892698
C           -1.25754859681021       -9.86815032978265        0.61470533837227
H           -0.24780414993941      -11.60317295756817       -0.13537161522961
H            1.62740881505896      -10.30082741668671       -1.07849435892689
H            1.66676857643115       -7.85664264205109       -0.87058098587129
H            2.14515801853950       -6.87431351152699        1.61995791217702
H            4.17527933698958       -5.47919834730189        1.51815535185909
H            4.90591311905021       -3.58529474694826       -1.99957679932308
H            6.80998593989054       -2.01361354031188       -2.14360345198820
H           11.44045179927260       -0.93469604877178       -1.26220387364087
H           13.81459441816340       -0.30968217640567       -1.68527909628909
H           14.49857874355543        2.05052381777546       -1.44944682632778
H           12.89682912339413        3.75299970633344       -0.83717524278053
H           11.53470947378359        5.10995998848196       -0.48010358133262
H            9.85585217857908        6.78265326973977        0.01526394827652
H            7.50017080304411        6.12396549875238        0.38270418208614
H            6.86988059629711        3.75976101804121        0.29244262642367
H            5.16362923879351        0.63722295523179       -1.29919234093410
H            2.88530011328633        1.08068725315883       -0.49319171971424
H            3.14485284141546        4.51558933315523        1.35225370218481
H            2.62410205076856        6.56487157622272        2.60580355790219
H            1.09543039597961        6.48085039345912        4.54328691405320
H            0.10411070597680        4.32477766237366        5.22468150796256
H            0.63774430603362        2.26963927027905        3.98477712722286
H           -0.38678137745064        2.45056466615380        1.54797847008739
H           -2.04360554683880        0.68661751688737        1.12576986620486
H           -1.31863608280055       -1.68107566866133        0.94668950891145
H            1.04367413257750       -2.25840462783555        1.27721134611665
H            2.69923229169415       -0.50643436321613        1.72521471582467
H            4.48399762991584        2.70009711255761        3.12663732561489
H            6.76490327007665        2.20673813948137        2.33749426123275
H            6.29448019514977       -1.02883270174012        1.97833769907352
H            4.44956753863573       -2.65076574048655        2.13756825569524
H            2.23315191166469       -2.84550529290417       -1.22420851847044
H            0.18863048916885       -4.19519239725051       -1.07125362507940
H           -2.38568569556063       -6.55328800108014       -1.12997696463827
H           -4.33876559083790       -5.08341132108939       -0.96283253227976
H           -6.22991473048414       -4.37055525038664        0.03560515834566
H           -7.97919803024160       -2.65240586130429       -0.12087434246101
H          -11.53168475130112       -0.18802648438692        1.45424890088158
H          -13.85915821636144        0.65181706526260        1.74096703561829
H          -14.42460905031589        2.92338462521353        0.95673644343044
H          -12.75819036726536        4.32751946540784       -0.08771581654199
H          -11.39283123107276        5.40104004239004       -0.98948822463450
H           -9.68943563958586        6.73342746751875       -2.07691362833364
H           -7.39580131687499        5.85377791354693       -2.35897506853993
H           -6.83622673372665        3.62119620949584       -1.51106976271005
H           -6.40055022728537        0.02634916483180       -2.31957211749499
H           -4.06923727536700        0.12482512970259       -3.09864585193375
H           -2.77005329851092        3.92874365669964       -2.37889347397564
H           -1.32850088106490        5.89673007982085       -2.10579991424621
H            1.02134681485160        5.62917224103119       -1.39195262128878
H            1.91979645523785        3.36778254988877       -0.98027913068226
H            0.47109082113195        1.39504827771787       -1.22961986008220
H           -2.81834870232481       -0.98587158853440       -1.02825884676291
H           -1.91605415426921       -3.13793448591745       -1.74322767769872
H           -0.11896668498331       -3.23446337906926       -3.45222103404332
H            0.73076233367099       -1.13944195355159       -4.43935138494870
H           -0.19967674847264        1.02494649563113       -3.74712107938004
H           -3.15600354632826        2.91731737914227        0.00966189468563
H           -5.49966559149102        2.85498489554189        0.74932648888845
H           -5.27838874208252        0.23149244874640        1.48801400565764
H           -3.52620688273566       -1.43783226860900        1.58145640442548
H           -2.60039870678972       -3.17716263448326        2.44928307532076
H           -0.59693619006114       -4.55320523026324        2.18980531173057
H           -2.03338273454042       -7.98632733230492        1.27053345669422
H           -2.08145949211976      -10.42870972425331        1.03163824482100
