81
 energy: -144.234569967622 gnorm: 0.000080173043 xtb: 6.7.1 (edcfbbe)
F           -8.95233672263463       -0.90080215888544        0.60228232376419
C           -8.68439522078626        0.18439158220757       -0.16539552864600
F           -8.93625364297018       -0.22611023636282       -1.43458183982472
F           -9.65234672961684        1.07320688041737        0.12029498584426
C           -7.30157443575865        0.70435528297408        0.01707672012573
C           -7.07243174659449        2.01960457548325        0.39900119343297
C           -5.77671941200527        2.47748195191499        0.55005278650486
C           -4.68466103894900        1.63093462981467        0.32149045383653
N           -3.42988549191627        2.07213124384642        0.40649282899442
C           -2.40088648908390        1.24231731564677        0.19338815859480
C           -1.05883929916444        1.81482999244910        0.19218432031551
C           -0.72573123737035        2.81091879930776        1.11380774397481
C            0.54801936746127        3.33982980926267        1.15117190565152
C            1.51261797731087        2.89312929598994        0.25284538346261
N            2.83377980208111        3.40527368013329        0.30542446385229
C            3.09567679466598        4.72786197225707       -0.03195517518244
C            2.09651415196382        5.59571036697252       -0.46459026592561
C            2.39573218833117        6.90627932810102       -0.79440659867997
C            3.69594396479361        7.37310144616256       -0.70770998460790
C            4.70688007352080        6.51771004698272       -0.29973363926670
C            4.41545979042411        5.20541763605868        0.03152152858880
O            5.46370130914395        4.40669276831179        0.40591193762745
C            5.18995547652947        3.10326386211452        0.72592189642387
C            6.25797186220064        2.30644668785767        1.10276082485536
C            6.04757602920946        0.98450954963303        1.46078841704496
C            4.76393629746298        0.46742859439787        1.45102477725087
C            3.69183398642998        1.25655752251641        1.07192337367786
C            3.88596692170784        2.58150929573873        0.68952196223593
C            1.17714704593678        1.93763358645604       -0.70342970999851
C           -0.09452792425122        1.40833762690533       -0.73583651958055
C           -2.64282881527885       -0.12583626961940       -0.03914168718061
C           -1.55701733134953       -1.10681581263735       -0.08496218533033
C           -0.52282445110243       -1.07310052035707        0.85371205935452
C            0.51483861327607       -1.97728934266793        0.78391349814085
C            0.53812781804587       -2.93697870461578       -0.22520677344067
N            1.63425615194426       -3.82987791909621       -0.32098255061000
C            2.89707740331975       -3.34746849903080       -0.65005090953946
C            3.12878962757057       -2.00528977039615       -0.94020576372347
C            4.39900312886436       -1.56289786229772       -1.26703691477498
C            5.46012541744850       -2.44969955771560       -1.31621544760395
C            5.24496601814717       -3.79267818631640       -1.05159394868678
C            3.97623992267900       -4.24342752420059       -0.72784100739009
O            3.82829439472980       -5.58636007326905       -0.50185147377998
C            2.57739847780903       -6.04588468808939       -0.18342774542334
C            2.44363846914254       -7.40358959014351        0.05213276930734
C            1.21089035373160       -7.93097406675962        0.40187845934238
C            0.11714627916881       -7.09224574550443        0.52828036817231
C            0.24314665323496       -5.73381503974655        0.29392412885570
C            1.46844700905976       -5.18951980055304       -0.08120516294015
C           -0.51120254095680       -3.00837803303629       -1.13601303459519
C           -1.55347222308495       -2.10604482435096       -1.05836475281223
N           -3.88686106518206       -0.57540862783890       -0.18583232418716
C           -4.92921037856360        0.25895413301829       -0.04481045580415
C           -6.23964632732019       -0.17807942546263       -0.20527962424946
H           -7.90550604411947        2.68294311907020        0.57335655892679
H           -5.58261811838329        3.49924265272380        0.83438965991843
H           -1.47806933801580        3.14721368180190        1.81042903591937
H            0.80470543788987        4.09376335983310        1.88065079142803
H            1.08273411184682        5.23747543793463       -0.54622559541846
H            1.60380339307974        7.56093765982516       -1.12345701282044
H            3.92948185477029        8.39469654603319       -0.96209952535480
H            5.73186773763991        6.84658223112679       -0.23430591680494
H            7.24344468132778        2.74429988758136        1.11288537045003
H            6.88328399916155        0.36836705248650        1.75150700772447
H            4.59174314335069       -0.55765120557071        1.73809480846923
H            2.69433906905817        0.84824719701639        1.07251898489622
H            1.91711945149818        1.62301696726938       -1.42410713858478
H           -0.35418006033723        0.68720781450704       -1.49558165658534
H           -0.54507024314688       -0.34097116728105        1.64657042996630
H            1.31127309515121       -1.95144881895185        1.51231715368282
H            2.30706092974132       -1.30835797725356       -0.91009556706823
H            4.55662800152151       -0.51797535472836       -1.48155494487427
H            6.45060791898160       -2.10441586808138       -1.56569362365901
H            6.04696311184770       -4.51228719470947       -1.09556552696198
H            3.31832545501746       -8.02762748905277       -0.04044045490552
H            1.11298777034431       -8.98965557270108        0.58195005917682
H           -0.84365779873091       -7.49096860210202        0.81456614024195
H           -0.61189110971993       -5.08674601926610        0.40770382433811
H           -0.50088502325250       -3.76381354905280       -1.90769707932420
H           -2.36823152416393       -2.15031685140761       -1.76467974586582
H           -6.42579725015531       -1.20244074520566       -0.48765653501738
