81
 energy: -144.234607662805 gnorm: 0.000053624136 xtb: 6.7.1 (edcfbbe)
F           -8.82934925109580       -1.65484846194681        0.30533828388883
C           -8.59947929860596       -0.45001937883564       -0.27670820166878
F           -8.76962234964401       -0.67505435687914       -1.60282510621475
F           -9.63442660792563        0.32600863142598        0.09112749320102
C           -7.26243407213504        0.11451042698767        0.05399033724985
C           -7.13920007988203        1.30398716405419        0.75983414215253
C           -5.88420023493542        1.80718662489234        1.04849707274604
C           -4.72816089413794        1.13315167737865        0.63574110803357
N           -3.51262416460635        1.63574941511361        0.85062021120842
C           -2.42040665336910        0.97014254743371        0.45460262968478
C           -1.13202926699482        1.63463555573499        0.62071611746325
C           -0.88412968462994        2.38988329032006        1.76989825638100
C            0.33413671889116        3.00859654396684        1.95773384352291
C            1.32665730781487        2.90041712108464        0.98745265272899
N            2.58929939630129        3.51147146818359        1.18936663444976
C            2.70059312742749        4.89571850769901        1.25894241662333
C            1.61398849693348        5.73947617349486        1.04334858827587
C            1.76198986402478        7.11348924211813        1.12033597427539
C            2.99596388126009        7.67200117619812        1.40564569148135
C            4.09387173714899        6.84904964084231        1.59823580953999
C            3.95403792598916        5.47377810441682        1.51994705708076
O            5.08348566006533        4.71877552248736        1.69479373290721
C            4.96306713382275        3.35817740639956        1.59209484863867
C            6.11654137785138        2.60865641601090        1.75167564157253
C            6.06334788874978        1.22579237637592        1.68404751512278
C            4.84946035397516        0.59655451769625        1.47018504905256
C            3.69293207940760        1.33931363702666        1.30701832058471
C            3.72961138934826        2.73087934226413        1.34873200932004
C            1.07271118621623        2.19035752083874       -0.18375806899748
C           -0.14272683561674        1.56645926723766       -0.36516219066406
C           -2.55087947774166       -0.30972388661805       -0.11824601492489
C           -1.39574773671521       -1.16723663138280       -0.38787899944874
C           -0.35780168244195       -1.28801553053525        0.53918311866870
C            0.73004912692675       -2.09147394226100        0.27171943227480
C            0.80094238533604       -2.79348071651113       -0.92896069150555
N            1.93666753461467       -3.59055808801251       -1.21761587564206
C            3.17507365744837       -2.99398937506945       -1.43196144342335
C            3.35622085223429       -1.61419521527430       -1.38175938842129
C            4.60382615148970       -1.05702355895598       -1.60384596941734
C            5.69271717683063       -1.86359553646191       -1.88440888503267
C            5.52783638786320       -3.23732826219544       -1.95957825085807
C            4.28207488368863       -3.80151809504416       -1.74191186876125
O            4.18445540819225       -5.16326722263056       -1.85562344347804
C            2.96041294874409       -5.73588949956415       -1.63072254671423
C            2.88006288133419       -7.11484672027636       -1.72492942517555
C            1.67739724126267       -7.75990242559765       -1.48499216871168
C            0.56021062426434       -7.02047670606910       -1.13735164332697
C            0.63247268961034       -5.64131261313521       -1.04314256079256
C            1.82616312229957       -4.97406354239657       -1.30469256585334
C           -0.24582802141026       -2.70934574451935       -1.84200003344844
C           -1.33741604237292       -1.91030386617967       -1.56749041450916
N           -3.75618419445510       -0.80363070991182       -0.39525541280168
C           -4.86197330159164       -0.11695451105488       -0.06835113912960
C           -6.13349353079585       -0.59999857708161       -0.35915309294959
H           -8.02272236654844        1.83628767179862        1.07687429606299
H           -5.77258918621945        2.73588987995393        1.58470619252915
H           -1.65748725143715        2.46671430103294        2.51845219852072
H            0.52582662426171        3.57261902841180        2.85857363912789
H            0.65097435146047        5.31394568626495        0.81025549435661
H            0.90450443335850        7.74642458730970        0.95257367068206
H            3.11147876865295        8.74221657344529        1.46994746954413
H            5.07170839783254        7.25298291893635        1.80730662477746
H            7.04311469426135        3.12992136614548        1.93268821606131
H            6.96557021293729        0.64820120049672        1.80652851808610
H            4.79716938869943       -0.47975286225127        1.42669413238079
H            2.75091293822040        0.84008565118196        1.14952634270861
H            1.82942109998366        2.14318971070803       -0.95256415691120
H           -0.34091897912011        1.03779380581370       -1.28500835439555
H           -0.41809256262297       -0.76116155742530        1.47935309963945
H            1.52654136557835       -2.18942505444501        0.99402306521897
H            2.51200377273812       -0.97791945829663       -1.17150682007048
H            4.72163035953605        0.01376250731573       -1.55316506565885
H            6.66573658573025       -1.43083936330757       -2.05314875349120
H            6.35192489548149       -3.89319393845361       -2.19124409784568
H            3.77216945938488       -7.66298340663966       -1.98319505065521
H            1.62155675937420       -8.83403318532775       -1.56224231034584
H           -0.37710952416194       -7.51435435267898       -0.93335672922272
H           -0.24044920260285       -5.07494441671587       -0.76026161667884
H           -0.19646141630378       -3.26638068051377       -2.76592859382347
H           -2.15237298762629       -1.83805095905316       -2.27118720445165
H           -6.23731940471664       -1.53133891169886       -0.89351818946761
