81
 energy: -144.282257809140 gnorm: 0.000048613498 xtb: 6.7.1 (edcfbbe)
F           -9.72580732319542        1.94815018496861        0.73131474636648
C           -8.98189085956457        1.76127237005081       -0.37905588898530
F           -9.30663371030224        0.54589356271118       -0.84299585073638
F           -9.45924986437043        2.64426362763729       -1.28274597946413
C           -7.51478304204796        1.94278773991446       -0.12390386171400
C           -7.09659644732268        3.17549953346700        0.41798951024911
C           -5.77031682727522        3.40725483856334        0.65479845641714
C           -4.82171733413225        2.41018535987973        0.35353946025111
N           -3.50529323399135        2.66305708096377        0.48079558362982
C           -2.64379606352867        1.71069917461055        0.21205952035844
C           -1.22804674150837        2.08244527389250        0.21447388455336
C           -0.76399727274265        3.00676368455800        1.15116362892244
C            0.56807468455921        3.36273698040656        1.18675291804055
C            1.46234587848193        2.81583951464342        0.26853256429629
N            2.82922437465699        3.15655189160894        0.31137083218398
C            3.24560885119138        4.47474892670984        0.10383079005930
C            2.35428186600053        5.49648143369750       -0.20159044198277
C            2.80223992171163        6.79213968258217       -0.41005873881842
C            4.14831831412278        7.08773838913690       -0.32913244158122
C            5.05454339507106        6.07351546865484       -0.05556188106415
C            4.61258903000567        4.77987819409842        0.15234899298039
O            5.57505717408716        3.82528885579586        0.38596004821066
C            5.14828005748689        2.53441769224812        0.59311540388202
C            6.12305549793214        1.58716749258920        0.84837697007167
C            5.77003572929913        0.26979102085977        1.10281591779557
C            4.43631167431806       -0.08610414525018        1.11559446775397
C            3.45639807941347        0.85944185114319        0.85404611250107
C            3.79355406491766        2.17710450316039        0.56816700306375
C            0.99432358010029        1.92620324703713       -0.69741107783600
C           -0.33519597608639        1.56165857361058       -0.72380794299255
C           -3.10098301889642        0.37933273599430       -0.09378171353795
C           -2.20508030368688       -0.77821232616078       -0.13560402258164
C           -1.15426733934188       -0.91716765648940        0.77266879609141
C           -0.32650019316666       -2.01867452327613        0.71732978606284
C           -0.52862226870635       -3.00408014535898       -0.24752493913093
N            0.33827710636460       -4.11397141945404       -0.31572553009007
C            1.69114255316703       -3.93654821100918       -0.62018068974728
C            2.22464405885403       -2.69190531136862       -0.93266273362689
C            3.56899544101018       -2.55017552512293       -1.24162960862896
C            4.40233897942206       -3.65061242998369       -1.24965328543160
C            3.88051477813853       -4.90498702557836       -0.96795156066985
C            2.53894428037473       -5.05128896098306       -0.66594508496334
O            2.08950569786382       -6.33019702462223       -0.43280512153812
C            0.75187077289122       -6.48942982729671       -0.15364687673067
C            0.31194904276441       -7.77974676170888        0.07722212259269
C           -1.01680692650095       -8.02024815882935        0.39590531544236
C           -1.89369054646494       -6.95896395543616        0.49792989985236
C           -1.45736086809689       -5.66326574307885        0.26577678525712
C           -0.13663234688065       -5.40785182491172       -0.08325511035884
C           -1.59404035757366       -2.88371731112560       -1.13736522244562
C           -2.42799555705383       -1.78667991610915       -1.07356359415553
N           -4.37260375024087        0.15088260952768       -0.32038811707745
C           -5.25615274882745        1.15298139872568       -0.15031044939489
C           -6.62300229181259        0.93952686527829       -0.40785986977704
H           -7.83774075965524        3.92959659054873        0.63459099223398
H           -5.42297112032350        4.34652271899363        1.05447268361340
H           -1.46122893940645        3.42088690224646        1.86273090153941
H            0.92702485306677        4.05867726956402        1.93013634760928
H            1.30174825836611        5.27740123626274       -0.28665481725524
H            2.08646812466091        7.56613351452468       -0.64083381928581
H            4.50251798644628        8.09419709624090       -0.48701944712959
H            6.11494421420905        6.26508112348006       -0.00396688170928
H            7.15424480606388        1.90410769674934        0.85004595503639
H            6.53708595792836       -0.46274255101414        1.29842913934242
H            4.14549244897139       -1.10329346633314        1.32697529620510
H            2.41819799076525        0.57028387847748        0.87749389720018
H            1.68141461241920        1.53025113382166       -1.43012551933768
H           -0.68957429754320        0.89112180044159       -1.49183729410400
H           -1.00422998962082       -0.17480133757513        1.54175628550386
H            0.47955876057078       -2.12934104242818        1.42700253736901
H            1.58228882263157       -1.82627888034745       -0.93934002435256
H            3.95724035251105       -1.57076918710650       -1.47393825888964
H            5.45020711612834       -3.54548115902424       -1.48234137189944
H            4.49886844703434       -5.78881817796821       -0.98453011377859
H            1.02817596033579       -8.58345886307598        0.00718212346136
H           -1.35089374384213       -9.03062286115865        0.57162092380316
H           -2.92610737955008       -7.12731582053937        0.76337354853129
H           -2.14988780554316       -4.84268206505607        0.36640385496556
H           -1.75695841581759       -3.65043126259046       -1.87996821664451
H           -3.25217117987816       -1.68464618216526       -1.76230410500582
H           -6.93908075187209       -0.01145066049243       -0.80711149883747
