50
 energy: -71.632761561802 gnorm: 0.000092524896 xtb: 6.7.1 (edcfbbe)
C           -7.45416439203971       -2.15659328606526       -0.65998605405947
C           -6.51617896026497       -1.73829948709706        0.35301830346405
C           -5.60465329528527       -0.68990721813193        0.21337449612936
C           -4.71696014723441       -0.33967546288641        1.26091404409930
C           -3.82633499137485        0.69389291336405        1.11820031820266
C           -3.76266641320678        1.42453126408835       -0.06851313443917
C           -2.79058278903972        2.56648754458668       -0.21889035547677
O           -1.64472407113514        2.46958287374155        0.59657957571232
C           -0.74728121738977        1.47072019410822        0.34918795330420
C           -0.87347532570546        0.50153088828885       -0.63519044232620
C            0.11221446959413       -0.46074069024660       -0.79409370416448
C            1.23964090822789       -0.48410891812916        0.00980829594521
C            2.32802278619465       -1.54012753818168       -0.09738265465673
C            2.26133378797916       -2.34023450691085       -1.40645179441907
C            2.12501699687264       -2.51203003603920        1.07396886589688
C            3.68275669138582       -0.85045074137093       -0.06908415204765
C            4.75202715770020       -1.29439699378460        0.69760323912558
C            5.97609416796122       -0.65354404540370        0.65929297409990
C            6.16006476412299        0.45412287497522       -0.15804706285401
O            7.38040909389038        1.06094907785357       -0.16916838975263
C            5.10016132892249        0.90569993412993       -0.93439842534746
C            3.88206210583918        0.25702323106414       -0.88692075676589
C            1.35144192657673        0.49116008314865        0.99961467101140
C            0.38140680179748        1.45276416223402        1.16924257323352
C           -4.62882966994773        1.09458200164608       -1.11293864777461
C           -5.52958762148763        0.06928249311987       -0.98241465306520
H           -7.20413747534950       -2.93411548993267       -1.36125298521957
H           -8.45234524176542       -1.75493690594159       -0.69181766623561
H           -6.52079543924305       -2.27867685677153        1.29555119522392
H           -4.75253287487315       -0.90008769756450        2.18380449514405
H           -3.15714898996797        0.94976050144033        1.92685003263535
H           -3.27033320968712        3.49907170017367        0.10477869226657
H           -2.50396846148281        2.68342240772434       -1.27444342955393
H           -1.73787017395513        0.47175977161530       -1.28008017041928
H           -0.02494894481982       -1.19821840562913       -1.56901194282970
H            2.27453828916719       -1.67758374661389       -2.26824974278386
H            1.36551107379339       -2.95572517978873       -1.44208342849734
H            3.12723051243128       -2.99670474773964       -1.47007031512570
H            2.29220354823358       -2.01380619764850        2.02555239890726
H            1.10109267565839       -2.88108348720531        1.05951804082337
H            2.79427569496990       -3.36544757290385        0.99390027105168
H            4.64505234407527       -2.15148336582563        1.34283731727256
H            6.80325996433868       -0.99966996161710        1.25872214042826
H            7.36291062005085        1.81136019443968       -0.77498550077411
H            5.23133961359746        1.76806975268721       -1.57571806512577
H            3.06549550103471        0.62580733444507       -1.49056888606113
H            2.22127616688956        0.49966684473975        1.64033459407359
H            0.47335750682094        2.20829524407183        1.93388459699540
H           -4.58347838870094        1.65855477887410       -2.03488624996007
H           -6.19846748050567       -0.18358084505094       -1.79214710188552
