50
 energy: -71.725326899551 gnorm: 0.000053148725 xtb: 6.7.1 (edcfbbe)
C           -9.24682031448013       -0.71187927830013       -0.30562129539659
C           -8.07755663329447       -1.34038646328265       -0.33101999897298
C           -6.76202233586690       -0.75024542804992       -0.11700512439873
C           -5.63445645531818       -1.57064822689266       -0.18210057464734
C           -4.36643239236576       -1.06279768626486        0.01640627202303
C           -4.18480388636399        0.28839549551710        0.27835037643109
C           -2.80776665713819        0.84683038225209        0.51833739622923
O           -1.87076440207696        0.12371414585169       -0.24848232867373
C           -0.55277295869240        0.45274890680833       -0.15028474548204
C           -0.03129129347113        1.45581251618418        0.65430912430291
C            1.33504477537312        1.69520888981997        0.67237907079357
C            2.21157841389243        0.95002659019022       -0.09763395282129
C            3.71084083376897        1.19710813200522       -0.14317849115351
C            4.20944040805807        2.08046744288437        1.00977149420041
C            4.00576393187811        1.91820403778374       -1.46647199378210
C            4.42810561003949       -0.13779621106844       -0.02014899539226
C            4.03235108782009       -1.01582309493181        0.98687261466830
C            4.66392761329844       -2.22583790590543        1.17815279757927
C            5.72468000120451       -2.59226041369583        0.35579152955987
O            6.32811467851028       -3.79532634497457        0.56946896429850
C            6.13098443363634       -1.72670296167209       -0.64870816738631
C            5.48875575570052       -0.51315079359979       -0.83005056677640
C            1.67519630025487       -0.05151186871071       -0.90612134842064
C            0.32232669729062       -0.30037195189812       -0.93499973021828
C           -5.29966913178442        1.11534920987135        0.34130881225299
C           -6.56784035689236        0.60559397320432        0.15077538256435
H          -10.16915216548864       -1.23995699577018       -0.47709895483538
H           -9.33907872597653        0.34370951999372       -0.11597090069578
H           -8.06217644948466       -2.40567140338863       -0.52886457772451
H           -5.75864503763385       -2.62428592934368       -0.38966730565337
H           -3.50392390493985       -1.70851153069055       -0.04013387405983
H           -2.56580606448927        0.75941530193221        1.59108246900616
H           -2.78456392034478        1.91275772157486        0.24873022540373
H           -0.67153971554698        2.06353419062895        1.27508041511426
H            1.69981569327425        2.48424426441156        1.31087485770517
H            3.91292857807221        1.66876231198702        1.97118870831424
H            3.82455042021796        3.09359813000796        0.91965948010059
H            5.29656789032094        2.12705017578764        0.98189147046676
H            3.78292418076507        1.27794203416785       -2.31629723871797
H            3.37993316101933        2.80586418150399       -1.53800626181578
H            5.04579052428097        2.23220590504346       -1.51689354109271
H            3.20484176127892       -0.74744858681918        1.62718030706719
H            4.35209552040663       -2.90299918465802        1.95731162576722
H            7.04110769246241       -3.91847322540637       -0.06847828370088
H            6.95543349643973       -2.00150982723319       -1.29477958574514
H            5.83398052728751        0.13355206504263       -1.62087507919617
H            2.33546779224293       -0.65202131956019       -1.51477491486074
H           -0.08877713681268       -1.07751350394799       -1.56000236783442
H           -5.17158564024711        2.16986610112315        0.54264222477052
H           -7.41510220008250        1.27116851048032        0.20610558084124
