50
 energy: -71.632755811610 gnorm: 0.000058535779 xtb: 6.7.1 (edcfbbe)
C           -7.49242099406551       -2.15795435404810       -0.64276359174884
C           -6.55290223138098       -1.72515085069887        0.36273263543954
C           -5.62930646225104       -0.69076949064937        0.20003623654283
C           -4.74227717566658       -0.32293558507708        1.24210158016650
C           -3.84117298421964        0.69821069864840        1.07728669361371
C           -3.76562903569616        1.39783969367942       -0.12722470067415
C           -2.78458918655694        2.52849698153664       -0.30270366268856
O           -1.65030543310468        2.45472947477393        0.53083850842190
C           -0.74801300584720        1.45142460608724        0.32224388153956
C           -0.86707793505617        0.44674569818380       -0.62675818633704
C            0.12451500456795       -0.51488457820392       -0.74964555175381
C            1.25092923976187       -0.50227446932195        0.05582325271580
C            2.35189075130451       -1.54819679814233       -0.01680985882170
C            2.28062223155243       -2.40864021767228       -1.28660778432896
C            2.17918573745449       -2.46854506444265        1.20006202262188
C            3.69548967667868       -0.83652603265490       -0.03801185174382
C            4.78189023107880       -1.22742481590378        0.73337896194444
C            5.99359386447971       -0.56743052225560        0.65090662466937
C            6.14740077468067        0.50616594970339       -0.21660638495978
O            7.35605756998497        1.13377849123477       -0.26991989704501
C            5.07019494069318        0.90404834626919       -0.99848399080083
C            3.86476926704631        0.23684149452430       -0.90652924529800
C            1.35476840168115        0.50786953570244        1.01103135332620
C            0.37849801659460        1.46859521231727        1.14535542674166
C           -4.63007153883700        1.04935108042440       -1.16707560904317
C           -5.54135367364302        0.03650189668560       -1.01456519170350
H           -7.24964848594995       -2.95630939051828       -1.32286556031588
H           -8.48538215355395       -1.74476654687426       -0.68876067361652
H           -6.56708338814655       -2.24126142213930        1.31869882473605
H           -4.78703479135920       -0.85953656480232        2.17869103698481
H           -3.17303712330484        0.96818240104845        1.88223051329582
H           -3.26394374828518        3.47399946691869       -0.01816196026556
H           -2.48305333670848        2.60754755686199       -1.35766147483972
H           -1.73020836583478        0.38922759429940       -1.27157307836306
H           -0.00680370100950       -1.28020856219988       -1.49814339966431
H            2.28052692867734       -1.78687520209733       -2.17843585818014
H            1.38981941032150       -3.03245784934943       -1.28504240063837
H            3.15169023509816       -3.06005396185696       -1.32769488327999
H            2.35083922288505       -1.92560986580416        2.12599187779969
H            1.16112530499905       -2.85340042650905        1.21611410068802
H            2.86071249837525       -3.31449073454544        1.14957601382720
H            4.69827595250419       -2.05688857004584        1.41704682366001
H            6.83415505403598       -0.87194549019055        1.25426599126534
H            7.31721115884709        1.85652020478220       -0.90755663979191
H            5.17780808462238        1.73933473151072       -1.67885739083083
H            3.03442023457311        0.56402996075364       -1.51533853354400
H            2.22403094837423        0.54525935267627        1.65145635433326
H            0.46437001636048        2.25124741015372        1.88292619726465
H           -4.57517225116685        1.58929624563308       -2.10283139735125
H           -6.20934309092551       -0.23038552960984       -1.82054954249773
