  62
        -92.68150357
 C         -4.5825107544        0.8778299445       -2.5564748974
 C         -4.6664203630        1.0941381122       -1.0424988942
 C         -4.5774335812        2.5865421115       -0.7079382431
 C         -5.9240880930        0.4785835107       -0.4707338343
 C         -7.2385943355        0.7829355935       -0.7477501228
 C         -8.2417202283        0.0761503175       -0.0964319686
 C         -7.9312176397       -0.9193198151        0.8182793172
 C         -6.6132982580       -1.2320398911        1.1043940989
 C         -5.6087852083       -0.5283861609        0.4565587294
 C         -4.1674119313       -0.6306040605        0.5516057125
 C         -3.3554148972       -1.4594755941        1.3147717561
 C         -1.9859708133       -1.3463149573        1.1964516623
 C         -1.3970933935       -0.4031069937        0.3392888825
 C          0.0478874092       -0.2883023214        0.2453024704
 C          0.8424595595       -1.4484928868       -0.0093950311
 C          0.2629845675       -2.6907933255       -0.2883319878
 C          1.0355865717       -3.8384811067       -0.4287637283
 C          2.4062149275       -3.7647120620       -0.2864599314
 C          3.0134995479       -2.5292597576       -0.0882360340
 C          2.2655790583       -1.3494814986       -0.0166834913
 C          2.8885163097       -0.0654868770        0.0773033140
 C          4.3328275945        0.0473087580       -0.0058626769
 C          5.0434144730       -0.5340334003       -1.0691152781
 C          6.4102543813       -0.4225229877       -1.1571595245
 C          7.1236929288        0.2629000210       -0.1657000360
 C          8.5235122378        0.3706818124       -0.2462767303
 N          9.6677954570        0.4580095950       -0.3131778718
 C          6.4308440634        0.8396677414        0.9062376239
 C          5.0619166189        0.7400775657        0.9748066545
 C          2.0884101837        1.1074590852        0.2508970851
 C          2.6484340597        2.3891104621        0.2421385223
 C          1.8841526528        3.5191893217        0.5123746345
 C          0.5438076880        3.3828168736        0.8111160033
 C         -0.0526974856        2.1278356225        0.7578026386
 C          0.6757456112        0.9852259488        0.4093556164
 C         -2.2306453705        0.4353783497       -0.4213495564
 C         -3.5925634186        0.3134141015       -0.3180081362
 H         -3.6429334887        1.2668576329       -2.9421381893
 H         -5.4022468899        1.3881383620       -3.0565993165
 H         -4.6409038819       -0.1835396208       -2.7888329930
 H         -3.6339256048        2.9969758768       -1.0608470596
 H         -5.3918269121        3.1291903655       -1.1818004391
 H         -4.6418258802        2.7354120779        0.3681616989
 H         -7.4932437051        1.5556777397       -1.4585512735
 H         -9.2764436818        0.3043791781       -0.3053438448
 H         -8.7280776508       -1.4553665615        1.3126341246
 H         -6.3728361264       -2.0065918203        1.8173652428
 H         -3.7862596071       -2.1772828249        1.9968533772
 H         -1.3422806982       -1.9615317821        1.8085636642
 H         -0.8074857830       -2.7615867328       -0.4039556708
 H          0.5549321682       -4.7836845296       -0.6311332875
 H          3.0139432366       -4.6548790774       -0.3444957558
 H          4.0863693027       -2.4864248912        0.0186287924
 H          4.4953207317       -1.0395320464       -1.8507421191
 H          6.9439093238       -0.8556369154       -1.9906655063
 H          6.9829451255        1.3566733290        1.6775766480
 H          4.5352247976        1.1623899330        1.8180892516
 H          3.6960928368        2.5101878978        0.0141264515
 H          2.3494560357        4.4931201984        0.5029416380
 H         -0.0512016368        4.2457465765        1.0699083854
 H         -1.1005700041        2.0354076896        0.9977079831
 H         -1.7842112412        1.1373540711       -1.1106684578
  62
        -92.68138422
 C         -4.7105205201        0.8002146691       -2.5352191063
 C         -4.7250129843        1.0619830960       -1.0259880291
 C         -4.6273899269        2.5638622856       -0.7410674277
 C         -5.9528001859        0.4585199340       -0.3807813156
 C         -7.2798126927        0.7560743200       -0.5996153674
 C         -8.2486755124        0.0637756314        0.1160163537
 C         -7.8923756419       -0.9112828650        1.0359928068
 C         -6.5615968874       -1.2178365265        1.2630563656
 C         -5.5913121549       -0.5283307230        0.5511024668
 C         -4.1468408360       -0.6260097310        0.5799855128
 C         -3.2988647797       -1.4410175165        1.3185110348
 C         -1.9367728335       -1.3228237711        1.1394755062
 C         -1.3903375806       -0.3856177913        0.2481452656
 C          0.0511630923       -0.2608617335        0.1149270806
 C          0.8422722929       -1.4224055155       -0.1460087522
 C          0.2539935162       -2.6569066606       -0.4394402450
 C          1.0182745641       -3.8090192861       -0.5899305974
 C          2.3884642447       -3.7471402524       -0.4389116150
 C          3.0043840527       -2.5196899203       -0.2184408211
 C          2.2660813755       -1.3342774744       -0.1385178124
 C          2.8942980440       -0.0559141760       -0.0137783459
 C          4.3417248474        0.0500098000       -0.0154587178
 C          5.1169692470       -0.5241577924       -1.0360750002
 C          6.4881772804       -0.4278402330       -1.0275313667
 C          7.1388588520        0.2350404890        0.0204334575
 C          8.5423636529        0.3214208739        0.0437001028
 N          9.6896455729        0.3923868350        0.0656778867
 C          6.3797306657        0.8121111247        1.0465881155
 C          5.0085950405        0.7284981782        1.0182923445
 C          2.0967395871        1.1231266107        0.1311697243
 C          2.6682162782        2.3994264098        0.1208760192
 C          1.9080065764        3.5390101405        0.3615853954
 C          0.5609740742        3.4164097113        0.6349818866
 C         -0.0445049944        2.1654850530        0.5877409657
 C          0.6807374403        1.0127325545        0.2665652639
 C         -2.2595208877        0.4327664088       -0.4933969987
 C         -3.6155946172        0.3037236138       -0.3315002988
 H         -5.5523471926        1.2963152395       -3.0123763061
 H         -4.7796835062       -0.2676382188       -2.7323675493
 H         -3.7894996700        1.1759989439       -2.9749435528
 H         -4.6404798018        2.7448795918        0.3319124993
 H         -3.7043471542        2.9672005134       -1.1515745003
 H         -5.4664893594        3.0890700107       -1.1909055851
 H         -7.5703612609        1.5132792731       -1.3133194179
 H         -9.2926820033        0.2876253436       -0.0460306892
 H         -8.6631654550       -1.4361525438        1.5810654606
 H         -6.2850264825       -1.9760785813        1.9805028118
 H         -3.6962987518       -2.1514003473        2.0280316565
 H         -1.2634845229       -1.9287846169        1.7285405446
 H         -0.8170086326       -2.7176705686       -0.5571292673
 H          0.5315510460       -4.7481304780       -0.8056670086
 H          2.9896800479       -4.6412611465       -0.5039335955
 H          4.0761694154       -2.4887788723       -0.0988839005
 H          4.6191248155       -1.0106139156       -1.8621290409
 H          7.0735269300       -0.8573840886       -1.8275052589
 H          6.8825750535        1.3155792835        1.8593876133
 H          4.4284162220        1.1524792894        1.8248596821
 H          3.7220680739        2.5080065844       -0.0844913708
 H          2.3813893595        4.5090224666        0.3507693981
 H         -0.0319865089        4.2871414264        0.8714819094
 H         -1.0966413652        2.0845800741        0.8122597166
 H         -1.8469659492        1.1238250466       -1.2141834102
  62
        -92.68136372
 C         -4.4230965446        0.9202952208       -2.5824340176
 C         -4.5941081556        1.1137403971       -1.0728927829
 C         -4.5286456192        2.6012539372       -0.7116401235
 C         -5.8800089690        0.4869948361       -0.5820882888
 C         -7.1770397209        0.7844507521       -0.9376785005
 C         -8.2132228348        0.0657598720       -0.3549541590
 C         -7.9525039079       -0.9341367092        0.5703587948
 C         -6.6525323103       -1.2398734580        0.9353679376
 C         -5.6150083179       -0.5249592670        0.3555616517
 C         -4.1809710766       -0.6236316862        0.5324789177
 C         -3.4104754798       -1.4548067866        1.3350362354
 C         -2.0360263284       -1.3467955083        1.2846171474
 C         -1.4026751742       -0.4065930545        0.4569891484
 C          0.0454499250       -0.3064487563        0.4019203325
 C          0.8388288665       -1.4669592625        0.1475412308
 C          0.2637802619       -2.7163030198       -0.1092073275
 C          1.0421508456       -3.8597318070       -0.2518256539
 C          2.4149872784       -3.7749544031       -0.1405100373
 C          3.0166875922       -2.5325822402        0.0298919341
 C          2.2607952191       -1.3587558430        0.1097449168
 C          2.8803525363       -0.0708858845        0.1760374264
 C          4.3160265874        0.0453820831       -0.0010287418
 C          4.9456684229       -0.5303338306       -1.1173273952
 C          6.2999578757       -0.4072888412       -1.3132186027
 C          7.0836867089        0.2828006478       -0.3794461376
 C          8.4704783575        0.4094473859       -0.5756240551
 N          9.6035066596        0.5145712221       -0.7389273049
 C          6.4739704776        0.8460820585        0.7484353609
 C          5.1152252206        0.7352511318        0.9250279871
 C          2.0838156599        1.0962888146        0.3948591393
 C          2.6365033327        2.3813393478        0.3991413299
 C          1.8725424419        3.5011520071        0.7100644085
 C          0.5387461849        3.3527482187        1.0313627387
 C         -0.0530977940        2.0962411681        0.9616344722
 C          0.6752915380        0.9646942733        0.5797395959
 C         -2.1954111999        0.4446388042       -0.3328838457
 C         -3.5607419373        0.3262633496       -0.2988698910
 H         -4.4815110328       -0.1365698541       -2.8353294375
 H         -3.4570034937        1.3020696231       -2.9054391202
 H         -5.2046885431        1.4502462205       -3.1216503462
 H         -5.3209132570        3.1480824974       -1.2170899070
 H         -4.6470218894        2.7331927731        0.3620255892
 H         -3.5703698774        3.0203499733       -1.0104725147
 H         -7.3928031375        1.5606421062       -1.6575344277
 H         -9.2346419013        0.2869755317       -0.6273971424
 H         -8.7743343248       -1.4808926705        1.0089674318
 H         -6.4509483381       -2.0190500167        1.6553136387
 H         -3.8770079226       -2.1727723554        1.9931459601
 H         -1.4258041214       -1.9649778458        1.9272897717
 H         -0.8077333859       -2.7966620901       -0.2061907138
 H          0.5642214190       -4.8105423490       -0.4336143700
 H          3.0279096519       -4.6612442140       -0.2025217390
 H          4.0916553575       -2.4788377250        0.1084487531
 H          4.3412041535       -1.0406295907       -1.8529580824
 H          6.7693340404       -0.8330031627       -2.1880542481
 H          7.0816669965        1.3630487215        1.4768448561
 H          4.6548111660        1.1460969506        1.8116439452
 H          3.6774132432        2.5140584179        0.1484282524
 H          2.3333756279        4.4772838176        0.7122830482
 H         -0.0547469631        4.2072886090        1.3197234021
 H         -1.0970749327        1.9929700107        1.2145505969
 H         -1.7127728138        1.1525107046       -0.9911087169
  62
        -92.68104908
 C         -4.5540253670        0.4796206353       -2.6810331510
 C         -4.6368851329        0.9261858608       -1.2179552133
 C         -4.5197488069        2.4500725901       -1.1147034431
 C         -5.9069531366        0.4265421650       -0.5664041765
 C         -7.2145845718        0.7178036922       -0.8865766627
 C         -8.2324046460        0.1361063254       -0.1413712371
 C         -7.9430971566       -0.7240245779        0.9076331951
 C         -6.6321968583       -1.0232722926        1.2372187079
 C         -5.6129848455       -0.4438258179        0.4962671384
 C         -4.1737108977       -0.5595997012        0.6109346944
 C         -3.3792515428       -1.2845631047        1.4894341506
 C         -2.0068894396       -1.2049965939        1.3707056588
 C         -1.4005335394       -0.3956524171        0.3983759452
 C          0.0472251215       -0.2916823765        0.3101635674
 C          0.8462171461       -1.4667773107        0.1563998273
 C          0.2625014930       -2.7279488115       -0.0068390836
 C          1.0309965305       -3.8677746230       -0.2148638053
 C          2.4016414248       -3.7596930377       -0.3244644433
 C          3.0055411929       -2.5114315490       -0.2181349055
 C          2.2648772012       -1.3561525788        0.0527333388
 C          2.8856398183       -0.0680676086        0.1128588029
 C          4.3276886104        0.0511446395       -0.0036243621
 C          4.9035763182        0.9009942137       -0.9623400757
 C          6.2675508493        1.0137500645       -1.0856999258
 C          7.1108024603        0.2897902154       -0.2331574534
 C          8.5071384386        0.4116664179       -0.3484190325
 N          9.6485598077        0.5114951142       -0.4419217550
 C          6.5519309575       -0.5538252485        0.7351302213
 C          5.1866164651       -0.6750575883        0.8372889362
 C          2.0865676593        1.1070901216        0.2832815785
 C          2.6703948971        2.3641861303        0.4723801403
 C          1.9018282447        3.5035557383        0.6839704951
 C          0.5290268870        3.3967619709        0.7632987891
 C         -0.0755054744        2.1510690247        0.6391736026
 C          0.6678744734        0.9950017786        0.3756846953
 C         -2.2156239939        0.3337599855       -0.4839339028
 C         -3.5798927433        0.2427599227       -0.3797169934
 H         -4.6381720632       -0.6030559084       -2.7494050526
 H         -3.6039595794        0.7823201487       -3.1153493958
 H         -5.3594659532        0.9272809451       -3.2583629194
 H         -4.5810675472        2.7626584899       -0.0741481372
 H         -3.5687934408        2.7844297821       -1.5234126629
 H         -5.3236344351        2.9294153372       -1.6681539701
 H         -7.4525892072        1.3858620858       -1.7015601874
 H         -9.2619674805        0.3563075986       -0.3820175862
 H         -8.7510888238       -1.1641455663        1.4733289299
 H         -6.4084040259       -1.6920974878        2.0548916250
 H         -3.8254170081       -1.8943232040        2.2609576788
 H         -1.3762265176       -1.7362484185        2.0690437781
 H         -0.8122524275       -2.8194019221        0.0093174289
 H          0.5461629086       -4.8273239540       -0.3134365998
 H          3.0093779797       -4.6315893117       -0.5133462710
 H          4.0708016810       -2.4365023933       -0.3712449496
 H          4.2572123618        1.4411123032       -1.6387319500
 H          6.6999745427        1.6547026766       -1.8401704215
 H          7.2032071243       -1.1002301449        1.4016617269
 H          4.7599773538       -1.3046904222        1.6043127414
 H          3.7452851242        2.4558767969        0.4767095413
 H          2.3876872433        4.4597414683        0.8056117055
 H         -0.0802201102        4.2692499000        0.9456280001
 H         -1.1434564511        2.0755852734        0.7711870830
 H         -1.7527985002        0.9296830710       -1.2573254347
  62
        -92.68092148
 C         -4.4094311242        0.5765330385       -2.6911999006
 C         -4.5802957737        0.9646356654       -1.2195329291
 C         -4.5025230374        2.4858440686       -1.0531988726
 C         -5.8720890705        0.4179454819       -0.6543419638
 C         -7.1661563710        0.6795206033       -1.0471889510
 C         -8.2094400034        0.0519665669       -0.3780591838
 C         -7.9585467640       -0.8220344030        0.6694580665
 C         -6.6616178347       -1.0899399540        1.0732279131
 C         -5.6169932511       -0.4662994339        0.4070754573
 C         -4.1838596381       -0.5552926715        0.5970242348
 C         -3.4217108868       -1.2832043242        1.5014297101
 C         -2.0461144122       -1.1925440802        1.4423162590
 C         -1.4046382262       -0.3718096461        0.5023464281
 C          0.0447476129       -0.2805945651        0.4417566742
 C          0.8382751854       -1.4601009108        0.2874622137
 C          0.2501345255       -2.7212241364        0.1411988015
 C          1.0126442451       -3.8658707399       -0.0620829282
 C          2.3821234357       -3.7631683406       -0.1877305931
 C          2.9896336731       -2.5150193689       -0.1055871892
 C          2.2561417390       -1.3541856479        0.1617017092
 C          2.8797127567       -0.0664595857        0.1914826380
 C          4.3137799162        0.0564319944        0.0012476573
 C          4.8286936403        0.8987292489       -0.9980416297
 C          6.1819638102        1.0073696650       -1.2099739439
 C          7.0767854537        0.2873279694       -0.4080635026
 C          8.4628339101        0.3990540409       -0.6190564707
 N          9.5957519478        0.4819680002       -0.7963119019
 C          6.5798782527       -0.5420090125        0.6051434858
 C          5.2235068229       -0.6589633938        0.7964551381
 C          2.0889224742        1.1099956738        0.3884806768
 C          2.6820136943        2.3638483384        0.5699110252
 C          1.9224112517        3.5032282801        0.8112907438
 C          0.5515726023        3.3997047939        0.9256245277
 C         -0.0605904431        2.1575352923        0.8037830597
 C          0.6730473707        1.0021106393        0.5120305266
 C         -2.1883646060        0.3754386458       -0.3940675687
 C         -3.5547799868        0.2745663979       -0.3483900700
 H         -4.4613474980       -0.5044343894       -2.8041403301
 H         -3.4462595868        0.9188436583       -3.0626247716
 H         -5.1946672338        1.0265269617       -3.2939708009
 H         -4.6333577800        2.7574095728       -0.0075222658
 H         -3.5358340264        2.8534388539       -1.3902234581
 H         -5.2817414702        2.9701089245       -1.6368647938
 H         -7.3743033334        1.3600201595       -1.8601270695
 H         -9.2287321661        0.2478670512       -0.6766745961
 H         -8.7857677611       -1.2986609482        1.1746791755
 H         -6.4677231376       -1.7722991839        1.8874313221
 H         -3.8956424986       -1.9057454775        2.2457594629
 H         -1.4421304751       -1.7267270423        2.1616940514
 H         -0.8245055971       -2.8100401111        0.1647131106
 H          0.5235534332       -4.8247071641       -0.1451762077
 H          2.9855700607       -4.6388294228       -0.3727908082
 H          4.0524082580       -2.4452443256       -0.2761259368
 H          4.1409401678        1.4366707579       -1.6341296157
 H          6.5660057655        1.6412863704       -1.9959232136
 H          7.2719469804       -1.0811167842        1.2357198534
 H          4.8465735604       -1.2758316519        1.5991748268
 H          3.7571005464        2.4518051501        0.5451811362
 H          2.4138444520        4.4572295963        0.9277333760
 H         -0.0495270096        4.2725139182        1.1319505692
 H         -1.1256292764        2.0832836101        0.9592568289
 H         -1.6980960082        0.9886090948       -1.1363754896
  62
        -92.68088027
 C         -4.7521452362        0.4573831430       -2.6188418473
 C         -4.7370945635        0.9114291251       -1.1558689446
 C         -4.6233417585        2.4365361301       -1.0684867325
 C         -5.9571229940        0.4081340362       -0.4169189371
 C         -7.2854317668        0.6914683942       -0.6465491215
 C         -8.2460317444        0.1074986340        0.1697362897
 C         -7.8802975135       -0.7473608765        1.1991049804
 C         -6.5481347035       -1.0386549323        1.4379176517
 C         -5.5859847841       -0.4565068582        0.6259953099
 C         -4.1418830507       -0.5623631996        0.6432702660
 C         -3.2864408264       -1.2804666319        1.4687608295
 C         -1.9261519580       -1.1867147089        1.2627303508
 C         -1.3896249349       -0.3702736315        0.2546403160
 C          0.0515593354       -0.2524396381        0.1062075352
 C          0.8476837772       -1.4297319656       -0.0483391841
 C          0.2598236319       -2.6848955467       -0.2399953681
 C          1.0271309347       -3.8263130814       -0.4430877730
 C          2.4013213427       -3.7261777210       -0.5119643329
 C          3.0102826649       -2.4838950493       -0.3723928101
 C          2.2676354516       -1.3269959668       -0.1139999594
 C          2.8949600704       -0.0440695341       -0.0223581510
 C          4.3440132263        0.0465466285       -0.0141848172
 C          5.0344884578        0.8684158847       -0.9193893689
 C          6.4063681860        0.9549607898       -0.8968665859
 C          7.1397833952        0.2306416979        0.0511059544
 C          8.5420478222        0.3312200969        0.0915143019
 N          9.6880552506        0.4148279613        0.1264618291
 C          6.4655394307       -0.5951982186        0.9597619245
 C          5.0954701412       -0.6904515151        0.9160400415
 C          2.0971924003        1.1393385374        0.0831892847
 C          2.6801894773        2.4005203907        0.2463436346
 C          1.9118647123        3.5491689566        0.4004962159
 C          0.5375994746        3.4487395458        0.4551039322
 C         -0.0679181276        2.2007818606        0.3606234321
 C          0.6748388120        1.0345500865        0.1453892930
 C         -2.2663733945        0.3421518308       -0.5810253768
 C         -3.6206735752        0.2394322195       -0.3877496153
 H         -3.8360985520        0.7630120586       -3.1191461894
 H         -5.5981368124        0.8974517745       -3.1414282702
 H         -4.8345267817       -0.6260766893       -2.6756821016
 H         -5.4685324344        2.9075937293       -1.5645307211
 H         -4.6117150763        2.7539717895       -0.0276018725
 H         -3.7069396193        2.7752850861       -1.5466693169
 H         -7.5832073031        1.3555678709       -1.4449968077
 H         -9.2909334267        0.3221969302        0.0009627874
 H         -8.6447292834       -1.1888813347        1.8215228701
 H         -6.2643032224       -1.7030024727        2.2405239220
 H         -3.6766035839       -1.8945574251        2.2667009317
 H         -1.2464740127       -1.7129437163        1.9175190815
 H         -0.8158255832       -2.7691332456       -0.2498000808
 H          0.5396759631       -4.7814731167       -0.5678718930
 H          3.0082592729       -4.6002536029       -0.6931556060
 H          4.0807657016       -2.4134359585       -0.4881423839
 H          4.4757532560        1.4064705161       -1.6712553737
 H          6.9292464394        1.5767098104       -1.6090529208
 H          7.0316551736       -1.1480571451        1.6952124527
 H          4.5771238910       -1.3094720870        1.6337918875
 H          3.7546381181        2.4897309247        0.2768785639
 H          2.3988032814        4.5073988936        0.4998336521
 H         -0.0726960757        4.3281475379        0.5960400533
 H         -1.1377266567        2.1335060831        0.4792350737
 H         -1.8613497147        0.9329403988       -1.3899725175
  62
        -92.68079785
 C         -4.7859582745        0.4428211327       -2.6078192234
 C         -4.7548384499        0.9044947300       -1.1474404544
 C         -4.6454464653        2.4303368439       -1.0692004472
 C         -5.9644967330        0.4006384131       -0.3919017111
 C         -7.2963267868        0.6794172800       -0.6062851042
 C         -8.2452356393        0.0954195863        0.2235448294
 C         -7.8646391376       -0.7551389850        1.2510887055
 C         -6.5288467380       -1.0418037884        1.4746463486
 C         -5.5783816796       -0.4593669487        0.6493203085
 C         -4.1339224288       -0.5607803540        0.6497297138
 C         -3.2671744531       -1.2747736950        1.4668722173
 C         -1.9098013997       -1.1773433823        1.2449842751
 C         -1.3871830463       -0.3608848245        0.2295148820
 C          0.0526845761       -0.2407076848        0.0697629857
 C          0.8476229337       -1.4186745778       -0.0855688022
 C          0.2584096040       -2.6722716058       -0.2830037400
 C          1.0248823754       -3.8141810953       -0.4863364268
 C          2.3995985735       -3.7160537226       -0.5486244997
 C          3.0099967150       -2.4752802828       -0.4019561581
 C          2.2677440642       -1.3180582080       -0.1441268290
 C          2.8967541067       -0.0366089312       -0.0439587539
 C          4.3458338840        0.0476941791       -0.0133236605
 C          5.0564104707        0.8669690192       -0.9052041442
 C          6.4282069520        0.9458358649       -0.8584025032
 C          7.1410037779        0.2157523402        0.1006826336
 C          8.5429681295        0.3065469602        0.1651099304
 N          9.6886971408        0.3827414828        0.2187116173
 C          6.4465030264       -0.6078269607        0.9961460187
 C          5.0770143189       -0.6951860755        0.9283868723
 C          2.1000905467        1.1484216642        0.0517843366
 C          2.6835384373        2.4094974546        0.2144676864
 C          1.9157830363        3.5598022080        0.3586598454
 C          0.5410605409        3.4614623631        0.4046961467
 C         -0.0654485934        2.2138760705        0.3120141084
 C          0.6769952189        1.0457839561        0.1060011479
 C         -2.2752695104        0.3463240467       -0.5983770128
 C         -3.6271285266        0.2396637301       -0.3894473954
 H         -4.8643636978       -0.6412506900       -2.6579277284
 H         -3.8774405246        0.7497161696       -3.1208364874
 H         -5.6401907943        0.8764668562       -3.1222703850
 H         -4.6221355835        2.7532864816       -0.0301724004
 H         -3.7363230019        2.7700275265       -1.5604408589
 H         -5.4984321469        2.8957714385       -1.5571570747
 H         -7.6058381198        1.3399781244       -1.4032195313
 H         -9.2927046104        0.3063774017        0.0666416077
 H         -8.6202237589       -1.1972339058        1.8838093249
 H         -6.2332971055       -1.7028020824        2.2758231011
 H         -3.6463851585       -1.8882180134        2.2705930656
 H         -1.2209143676       -1.7007761334        1.8923303885
 H         -0.8173581651       -2.7545363370       -0.2972756428
 H          0.5365556418       -4.7682338009       -0.6159602944
 H          3.0059737968       -4.5905856707       -0.7295943225
 H          4.0813776711       -2.4061651678       -0.5112580763
 H          4.5143607344        1.4077900484       -1.6671516247
 H          6.9668951478        1.5652359743       -1.5607739331
 H          6.9965599846       -1.1644879594        1.7408573087
 H          4.5426212204       -1.3123533404        1.6359540638
 H          3.7578505009        2.4974332756        0.2524356343
 H          2.4034243612        4.5176774379        0.4577792372
 H         -0.0689332836        4.3422269233        0.5384069484
 H         -1.1360768067        2.1485616142        0.4238021207
 H         -1.8814787756        0.9350876678       -1.4143775208
  62
        -92.67924535
 C         -5.0799570248        0.4053739694       -2.4887432037
 C         -4.8664894878        0.8833467057       -1.0491117265
 C         -4.7330009586        2.4087315797       -1.0043445777
 C         -5.9824115909        0.4033926528       -0.1471390577
 C         -7.3259338413        0.7035557654       -0.1955659308
 C         -8.1725036559        0.1430415364        0.7529371818
 C         -7.6806382840       -0.7069596839        1.7326676012
 C         -6.3326145639       -1.0162099741        1.7890679923
 C         -5.4840321081       -0.4558038024        0.8457715890
 C         -4.0517936487       -0.5732777904        0.6748110910
 C         -3.1028308446       -1.2906873389        1.3919096489
 C         -1.7781513900       -1.1870349041        1.0288000665
 C         -1.3649522800       -0.3619892769       -0.0316833991
 C          0.0596453051       -0.2181264725       -0.2749874181
 C          0.8594016910       -1.3958231466       -0.4167736409
 C          0.2738356804       -2.6415422779       -0.6649852715
 C          1.0458906584       -3.7838782579       -0.8410805691
 C          2.4230510366       -3.6943280444       -0.8107685631
 C          3.0312261303       -2.4612315178       -0.6058654533
 C          2.2783720357       -1.3022873818       -0.3902693751
 C          2.9045772373       -0.0247063230       -0.2366537598
 C          4.3375235713        0.0341154556       -0.0122550244
 C          5.1953311328        0.8244857264       -0.7933340627
 C          6.5427756219        0.8881463148       -0.5249235094
 C          7.0806440428        0.1681635377        0.5486646704
 C          8.4527941692        0.2522297131        0.8457724449
 N          9.5724174393        0.3305953480        1.0946751649
 C          6.2407624818       -0.6410902389        1.3249420957
 C          4.8997254272       -0.7127788004        1.0371270655
 C          2.1104521697        1.1664887330       -0.2500373582
 C          2.6888107570        2.4328999269       -0.1138648116
 C          1.9216205198        3.5916240063       -0.0760615511
 C          0.5462357722        3.4990829956       -0.1018832437
 C         -0.0599219670        2.2494005350       -0.1608728581
 C          0.6842632612        1.0700610309       -0.2709961317
 C         -2.3399527886        0.3232608705       -0.7762847586
 C         -3.6619085531        0.2160499482       -0.4214737513
 H         -5.1757808807       -0.6781124113       -2.5152122812
 H         -4.2379094841        0.6953847636       -3.1130162276
 H         -5.9861013429        0.8436526699       -2.9002567114
 H         -4.5699775252        2.7420968147        0.0187486462
 H         -3.8936814175        2.7334811141       -1.6153236871
 H         -5.6382244233        2.8785755571       -1.3812547118
 H         -7.7226443856        1.3641105358       -0.9528612497
 H         -9.2273922943        0.3732170640        0.7281788096
 H         -8.3577310699       -1.1291103437        2.4606938690
 H         -5.9489299185       -1.6755077428        2.5533922950
 H         -3.3932601017       -1.9060438270        2.2302216585
 H         -1.0230584874       -1.7079440012        1.5996812281
 H         -0.8006810789       -2.7146321598       -0.7375036226
 H          0.5625076108       -4.7330796958       -1.0168384539
 H          3.0335545806       -4.5716453288       -0.9621124422
 H          4.1083514539       -2.3972765365       -0.6337022387
 H          4.7945258736        1.3530433752       -1.6458675253
 H          7.1969132959        1.4891066670       -1.1399142914
 H          6.6561367598       -1.1981159241        2.1520941276
 H          4.2504785084       -1.3193138391        1.6516242231
 H          3.7585165225        2.5211651501       -0.0123652833
 H          2.4086849287        4.5519273708       -0.0004821905
 H         -0.0659348290        4.3868205759       -0.0484846309
 H         -1.1342633613        2.1943836810       -0.0952334179
 H         -2.0419843814        0.8939260061       -1.6440219181
