  49
  -77.1008862600000       0.166599961063204      !
 C         -5.5592529031        3.4248809444       -0.5025793399
 C         -5.9958278029        2.1436407805       -0.7983806252
 C         -5.1420393890        1.0658634260       -0.6626889883
 C         -3.8320571767        1.2561774679       -0.2211009254
 C         -2.9010235497        0.1564879342       -0.0657990233
 N         -1.5827408403        0.3433558693       -0.2038660464
 C         -0.9633683991       -0.8311910905       -0.0705046841
 C          0.4124747949       -1.0738401201       -0.2848155453
 C          0.8402767308       -2.3242056478       -0.7964402368
 C          2.1510796231       -2.6152640704       -0.9978351704
 C          3.1764168331       -1.6705077438       -0.6756335003
 C          4.5267489507       -1.9738223574       -0.8316294714
 C          5.5058605103       -1.0381178989       -0.5479545945
 C          5.1609821780        0.2454938292       -0.1008598525
 C          6.1419434451        1.2243019141        0.1893752022
 C          5.7775426373        2.4848733433        0.6258786972
 C          4.4502221013        2.8166129222        0.7916331345
 C          3.4280854679        1.8708302487        0.5154509270
 C          2.0712182091        2.1702745496        0.6741740930
 C          1.0926668130        1.2269346192        0.4069880964
 C          1.4181782108       -0.0516412720       -0.0437002482
 C          2.7869552169       -0.3833048363       -0.2188752182
 C          3.7894110023        0.5756903717        0.0636441976
 N         -1.9053588661       -1.8166456058        0.2364009872
 C         -1.7578276788       -3.0892898090        0.6757332445
 C         -2.8499258378       -3.8271319141        1.0145325422
 C         -4.1428572538       -3.2550120887        0.9539684247
 C         -4.2864357732       -1.9445508488        0.5899025687
 C         -3.1562111682       -1.1996154540        0.2310309273
 C         -3.3948024157        2.5546819447        0.0514813304
 C         -4.2528604986        3.6265590502       -0.0846041047
 H         -6.2316669032        4.2634184826       -0.6080079753
 H         -7.0069854443        1.9853021549       -1.1450786802
 H         -5.4818077626        0.0780901825       -0.9351838123
 H          0.0932380362       -3.0379855138       -1.1152944514
 H          2.4430307584       -3.5614527330       -1.4298593414
 H          4.8066798211       -2.9581009413       -1.1806864941
 H          6.5493042571       -1.2894291974       -0.6730469081
 H          7.1837101787        0.9694944915        0.0604043215
 H          6.5439213338        3.2171259783        0.8386510421
 H          4.1669446816        3.8006454371        1.1347012253
 H          1.7866509993        3.1560283626        1.0138581561
 H          0.0541774894        1.4822899127        0.5358334756
 H         -0.7521759103       -3.4643197947        0.7750717749
 H         -2.7236103236       -4.8406296400        1.3572939589
 H         -4.9994262092       -3.8469240199        1.2336469083
 H         -5.2499958795       -1.4626816134        0.6047229968
 H         -2.3748981417        2.6985977352        0.3716018034
 H         -3.9049711905        4.6255415608        0.1345190375
  49
  -77.1008860800000       0.166568230945588      !
 C         -5.5056058634        3.4554371255       -0.5066787889
 C         -5.9029101414        2.3745749081        0.2635313580
 C         -5.0661591218        1.2868773872        0.4266419399
 C         -3.8144380029        1.2635934780       -0.1890054499
 C         -2.8976847543        0.1489172937       -0.0520181879
 N         -1.5790403983        0.3264626286       -0.2012817429
 C         -0.9639612076       -0.8492227457       -0.0620660556
 C          0.4156146943       -1.0884138777       -0.2581637677
 C          0.8543676212       -2.3358298935       -0.7665245860
 C          2.1676526657       -2.6141949300       -0.9712508167
 C          3.1845828454       -1.6587324274       -0.6544126928
 C          4.5368735850       -1.9469459086       -0.8214380371
 C          5.5081317090       -1.0025117774       -0.5392613754
 C          5.1529568286        0.2734045464       -0.0788518796
 C          6.1258798228        1.2593063229        0.2155126443
 C          5.7516107036        2.5113708393        0.6675946027
 C          4.4219880886        2.8283197501        0.8434027116
 C          3.4074378376        1.8759591583        0.5610700038
 C          2.0484042430        2.1614631699        0.7265854547
 C          1.0766513682        1.2124300551        0.4531888216
 C          1.4127925195       -0.0592362696       -0.0099629677
 C          2.7843775805       -0.3776243161       -0.1898480540
 C          3.7790873595        0.5885336077        0.0958065628
 N         -1.9117545023       -1.8323463107        0.2285338294
 C         -1.7801442024       -3.1182566122        0.6343143942
 C         -2.8852599956       -3.8756218950        0.8709048237
 C         -4.1768674652       -3.3216453221        0.6997558553
 C         -4.3086287231       -1.9962899690        0.3906760088
 C         -3.1616949615       -1.2126664110        0.2086355229
 C         -3.4132651861        2.3689782139       -0.9438548782
 C         -4.2535889535        3.4518372281       -1.1022818537
 H         -6.1656142443        4.3008855314       -0.6337442428
 H         -6.8696331902        2.3829692782        0.7462798698
 H         -5.3718781285        0.4703732360        1.0629604465
 H          0.1142991836       -3.0576729557       -1.0830133734
 H          2.4674896009       -3.5583182484       -1.4024877881
 H          4.8246394923       -2.9264757312       -1.1771450389
 H          6.5531172020       -1.2417153616       -0.6739508166
 H          7.1692652288        1.0160503851        0.0788502943
 H          6.5119553585        3.2483838770        0.8858079223
 H          4.1307843425        3.8051235872        1.2000235409
 H          1.7552450841        3.1410597875        1.0758244067
 H          0.0367713341        1.4604380170        0.5890772297
 H         -0.7790437441       -3.4901953511        0.7808704588
 H         -2.7739645810       -4.8983522874        1.1905211949
 H         -5.0454538878       -3.9441133552        0.8422009760
 H         -5.2791881227       -1.5417145620        0.2803197254
 H         -2.4355145203        2.3501100533       -1.3995176352
 H         -3.9350189725        4.2982695038       -1.6929795598
  49
  -77.1008795700000       0.165424710943068      !
 C         -5.5525774389        3.4234902972       -0.5118960306
 C         -4.2537051576        3.6245106398       -0.0711281135
 C         -3.3938235091        2.5540398806        0.0656205951
 C         -3.8229037131        1.2577415985       -0.2280198366
 C         -2.8941925818        0.1566079831       -0.0680262587
 N         -1.5746254120        0.3380567790       -0.1958323857
 C         -0.9611606262       -0.8395050762       -0.0585807435
 C          0.4154148489       -1.0845413222       -0.2654368367
 C          0.8452175932       -2.3337595486       -0.7777043232
 C          2.1559473967       -2.6186415046       -0.9892598016
 C          3.1794688952       -1.6678501578       -0.6794971850
 C          4.5293528787       -1.9613972332       -0.8563325353
 C          5.5063124427       -1.0201877093       -0.5831175214
 C          5.1597706294        0.2578682494       -0.1220331742
 C          6.1384223730        1.2411580073        0.1611427759
 C          5.7724465724        2.4953519731        0.6141907054
 C          4.4456721844        2.8164992373        0.8032283426
 C          3.4257075127        1.8666300504        0.5328549552
 C          2.0694115506        2.1562372122        0.7127420804
 C          1.0928582163        1.2104748191        0.4469684483
 C          1.4195988163       -0.0613917498       -0.0214321554
 C          2.7882089276       -0.3849497360       -0.2122571652
 C          3.7886028713        0.5777873659        0.0647427460
 N         -1.9095658152       -1.8212199618        0.2400207110
 C         -1.7724868321       -3.0955267611        0.6785008778
 C         -2.8709739428       -3.8268742177        1.0104032348
 C         -4.1603484538       -3.2473020160        0.9437068648
 C         -4.2941117385       -1.9360726220        0.5788226338
 C         -3.1575102215       -1.1983625585        0.2263289333
 C         -5.1247639669        1.0681999596       -0.6929595308
 C         -5.9798765413        2.1446295598       -0.8303769729
 H         -6.2262553354        4.2609491478       -0.6174595585
 H         -3.9130054254        4.6219433052        0.1647213423
 H         -2.3795493743        2.6977387973        0.4031035854
 H          0.0998242483       -3.0517391289       -1.0907470991
 H          2.4487234268       -3.5641423751       -1.4222905584
 H          4.8109687012       -2.9422189046       -1.2133518801
 H          6.5492593626       -1.2637867040       -0.7255441049
 H          7.1796936752        0.9945786914        0.0147656694
 H          6.5370984949        3.2304559977        0.8233763176
 H          4.1608931217        3.7949907579        1.1606298169
 H          1.7835158271        3.1365692026        1.0661840527
 H          0.0549141986        1.4596526819        0.5908982903
 H         -0.7698597263       -3.4768600476        0.7836427960
 H         -2.7525455316       -4.8414156631        1.3530318843
 H         -5.0217769933       -3.8339859812        1.2193653002
 H         -5.2544683358       -1.4476099575        0.5873759951
 H         -5.4558030676        0.0822110876       -0.9823537027
 H         -6.9848280939        1.9869674581       -1.1945499987
  49
  -77.1008735700000       0.164377728739245      !
 C         -5.5217818717        3.4454390423       -0.4877137088
 C         -4.3057407362        3.4109951249       -1.1525606413
 C         -3.4577915140        2.3339519911       -0.9926075664
 C         -3.8170889365        1.2655480959       -0.1676010613
 C         -2.8959441264        0.1552361197       -0.0224781844
 N         -1.5817250204        0.3228460745       -0.2101105978
 C         -0.9648078261       -0.8484066910       -0.0366599997
 C          0.4111105538       -1.0973292205       -0.2417867394
 C          0.8449842150       -2.3732279516       -0.6810242486
 C          2.1571377715       -2.6719353952       -0.8599265992
 C          3.1788298910       -1.7070635250       -0.5899053515
 C          4.5305385160       -2.0163951232       -0.7212086288
 C          5.5063058181       -1.0616802487       -0.4961893393
 C          5.1561239192        0.2476704293       -0.1359415488
 C          6.1333482855        1.2470042777        0.0890102197
 C          5.7643899625        2.5327142489        0.4407108917
 C          4.4360125004        2.8695903203        0.5847377741
 C          3.4172279063        1.9040039362        0.3707966399
 C          2.0594073758        2.2083888793        0.5086740036
 C          1.0832411051        1.2468163629        0.3030258050
 C          1.4131679062       -0.0572704989       -0.0642558001
 C          2.7837411879       -0.3949680931       -0.2164684046
 C          3.7831471867        0.5832667383        0.0048260557
 N         -1.9089765688       -1.8169198388        0.3126738150
 C         -1.7754005481       -3.0870573891        0.7651172506
 C         -2.8790642758       -3.8309211185        1.0474397740
 C         -4.1720655799       -3.2791778210        0.8780237401
 C         -4.3042894979       -1.9649428613        0.5252487368
 C         -3.1574033310       -1.1942716876        0.2948556781
 C         -5.0325598964        1.3194101784        0.5152137517
 C         -5.8762289092        2.4015169843        0.3514656389
 H         -6.1869884374        4.2868518266       -0.6148463154
 H         -4.0209307832        4.2288740728       -1.7985332994
 H         -2.5069285685        2.2928345599       -1.5009034610
 H          0.1015960145       -3.1058652849       -0.9630018728
 H          2.4532519891       -3.6407469362       -1.2352892233
 H          4.8137988550       -3.0206987065       -1.0039982652
 H          6.5508665257       -1.3175103359       -0.6005748946
 H          7.1760074471        0.9881631889       -0.0221331776
 H          6.5282566458        3.2797182122        0.6057282071
 H          4.1484520645        3.8726485921        0.8632658793
 H          1.7702393236        3.2128871106        0.7824094576
 H          0.0444211940        1.5094706362        0.4167380851
 H         -0.7737685607       -3.4576760326        0.9106619105
 H         -2.7655630751       -4.8414586179        1.4030738002
 H         -5.0399815529       -3.8932443474        1.0565036354
 H         -5.2743587955       -1.5086320145        0.4157402907
 H         -5.3013480425        0.5321066318        1.2032408351
 H         -6.8141863563        2.4347173662        0.8871436853
  49
  -77.1004575800000       0.105844234908827      !
 C         -5.3980192010        3.4675210541       -0.6984671930
 C         -4.1179182607        3.6405892612       -0.1949123455
 C         -3.3058066747        2.5473072640        0.0257470725
 C         -3.7648750623        1.2560824453       -0.2457152352
 C         -2.8730521169        0.1360875785       -0.0212330161
 N         -1.5463576339        0.2968195197       -0.0829904639
 C         -0.9601870788       -0.8922857137        0.0684086436
 C          0.4171146296       -1.1475839073       -0.1206909670
 C          0.8457794588       -2.3736719233       -0.6842176841
 C          2.1463338879       -2.6075638732       -0.9999603839
 C          3.1577505187       -1.6250683999       -0.7561132133
 C          4.4921115469       -1.8486194225       -1.0871675502
 C          5.4547102164       -0.8789842164       -0.8660357125
 C          5.1129616537        0.3506384466       -0.2852213481
 C          6.0783489296        1.3573525032       -0.0403958718
 C          5.7172141137        2.5579506794        0.5428461848
 C          4.4091290143        2.8019831848        0.9020901178
 C          3.4013314789        1.8294129290        0.6691324105
 C          2.0632457523        2.0425010751        1.0157858496
 C          1.0957130868        1.0842354207        0.7611619697
 C          1.4145388812       -0.1246335700        0.1442588807
 C          2.7702093405       -0.3854684110       -0.1818776012
 C          3.7592187401        0.5960488889        0.0668610392
 N         -1.9352853993       -1.8602316705        0.3132599724
 C         -1.8335694083       -3.1408870081        0.7442541760
 C         -2.9553871096       -3.8589027947        1.0209082172
 C         -4.2322008452       -3.2596054810        0.9020060403
 C         -4.3323185789       -1.9429833642        0.5433770815
 C         -3.1722002932       -1.2172235197        0.2497891948
 C         -5.0480486298        1.0931337063       -0.7687158433
 C         -5.8550944520        2.1925970142       -0.9903910708
 H         -6.0332214261        4.3231644936       -0.8740202189
 H         -3.7538779249        4.6341986790        0.0221639736
 H         -2.3039942218        2.6676416998        0.4068847350
 H          0.1042551185       -3.1100571173       -0.9609351932
 H          2.4357465139       -3.5330045059       -1.4763217689
 H          4.7727654023       -2.7956744863       -1.5265413661
 H          6.4838303460       -1.0649796215       -1.1375496059
 H          7.1053945673        1.1701637783       -0.3172018519
 H          6.4713362262        3.3117181570        0.7215842395
 H          4.1297948396        3.7372472966        1.3642078723
 H          1.7837311348        2.9743643962        1.4861131976
 H          0.0714323126        1.2782764254        1.0327926473
 H         -0.8406226676       -3.5359748916        0.8858084836
 H         -2.8676008716       -4.8782558580        1.3584117991
 H         -5.1133440343       -3.8363221804        1.1326752548
 H         -5.2863908960       -1.4430113788        0.5133343989
 H         -5.4005575185        0.1091365338       -1.0386586392
 H         -6.8445256013        2.0559919561       -1.4026619188
  49
  -77.0999629200000       6.271005935678453E-002 !
 C         -6.8243043467        1.7728555144       -1.7864732119
 C         -6.8177458799        0.6444658521       -0.9830679240
 C         -5.6265474580        0.1366566164       -0.5003869616
 C         -4.4181092992        0.7597477372       -0.8127870596
 C         -3.1400208341        0.2683872693       -0.3358272799
 N         -2.0131573826        0.5233609108       -1.0080672261
 C         -0.9838172715       -0.0010777853       -0.3398928524
 C          0.3531647400        0.0946954213       -0.7845364427
 C          0.5597346118        0.1751710556       -2.1850730426
 C          1.7942330240        0.0297442120       -2.7286330225
 C          2.9496395840       -0.1566351775       -1.9000963892
 C          4.2166800984       -0.3742695065       -2.4369104122
 C          5.3283627506       -0.4956848566       -1.6213041114
 C          5.2193979340       -0.3500757619       -0.2303948043
 C          6.3447188037       -0.4216650775        0.6251824801
 C          6.2080370777       -0.2441946680        1.9899339513
 C          4.9755100771        0.0170538134        2.5493150003
 C          3.8152747938        0.0947365029        1.7359090045
 C          2.5544858815        0.4054243463        2.2567413776
 C          1.4320466790        0.4296806665        1.4440013984
 C          1.5121122342        0.1224133209        0.0844758530
 C          2.7952866977       -0.0625553094       -0.4914759570
 C          3.9403845539       -0.1108709647        0.3374413530
 N         -1.4550957415       -0.6676707841        0.7891349216
 C         -0.8360122243       -1.5021693006        1.6629148553
 C         -1.5399894372       -2.0531561291        2.6858833384
 C         -2.9172478315       -1.7650242879        2.8405840575
 C         -3.5586922809       -0.9963665640        1.9059093575
 C         -2.8368851996       -0.4815303917        0.8251291543
 C         -4.4335942035        1.8834619105       -1.6427545446
 C         -5.6264031652        2.3851377425       -2.1215137819
 H         -7.7587376014        2.1669790418       -2.1578252852
 H         -7.7478315296        0.1526966319       -0.7368208308
 H         -5.6332368931       -0.7668668782        0.0895315114
 H         -0.3167558060        0.2804329690       -2.8058652238
 H          1.9298216077        0.0328196685       -3.7998959571
 H          4.3262461011       -0.4456827146       -3.5098147501
 H          6.3003258737       -0.6825070400       -2.0546133431
 H          7.3156856274       -0.6123276038        0.1927772670
 H          7.0812689259       -0.3031014735        2.6245710751
 H          4.8749025292        0.1723216674        3.6132223423
 H          2.4572813268        0.6255599493        3.3101658488
 H          0.4812044575        0.7068506674        1.8765432589
 H          0.2116571696       -1.6955092557        1.4989456046
 H         -1.0450150139       -2.7116892871        3.3801321300
 H         -3.4550338316       -2.1730291776        3.6809996304
 H         -4.6110125713       -0.7804016930        1.9890772203
 H         -3.4922289365        2.3461627120       -1.8944365486
 H         -5.6264305920        3.2575415683       -2.7583055042
  49
  -77.0999574100000       6.234548261849513E-002 !
 C         -6.8432415998        2.4755066449       -0.0851121389
 C         -5.6615475953        3.1265954589       -0.4042652093
 C         -4.4610283680        2.4478923401       -0.3563356958
 C         -4.4226140054        1.0996299315        0.0068110189
 C         -3.1388975637        0.4266370090        0.0511752726
 N         -2.0093798028        1.1101518685        0.2557883749
 C         -0.9786955051        0.2617743397        0.2189737167
 C          0.3601088615        0.6720747058        0.3985011702
 C          0.5755275743        1.8200314745        1.2034300675
 C          1.8154620844        2.1603134324        1.6355017036
 C          2.9677322091        1.3990651059        1.2495699590
 C          4.2413447478        1.6898240476        1.7335625614
 C          5.3489267996        0.9782722563        1.3066205646
 C          5.2282814170       -0.0240124185        0.3325395574
 C          6.3483805157       -0.7371411300       -0.1573655644
 C          6.1999160313       -1.6998600796       -1.1390771577
 C          4.9603886801       -1.9802365593       -1.6728732067
 C          3.8052942221       -1.2950949247       -1.2147039735
 C          2.5376285216       -1.5117924711       -1.7656574919
 C          1.4209575923       -0.8600381949       -1.2665736868
 C          1.5131304832        0.0130761274       -0.1810691702
 C          2.8023814406        0.3524055572        0.3040479745
 C          3.9424684093       -0.3246086478       -0.1885565081
 N         -1.4525929927       -1.0350196697        0.0304216840
 C         -0.8333775840       -2.2407217163        0.1126636338
 C         -1.5411813386       -3.3802530495       -0.1021057001
 C         -2.9229072554       -3.3167440358       -0.4034491905
 C         -3.5643399889       -2.1065884704       -0.3901141885
 C         -2.8372523671       -0.9460765256       -0.1109471167
 C         -5.6140006039        0.4587085281        0.3472788989
 C         -6.8128650774        1.1443867254        0.2976991893
 H         -7.7835169687        3.0053804454       -0.1247625039
 H         -5.6803204974        4.1674519185       -0.6920852259
 H         -3.5319097425        2.9396679903       -0.5986501977
 H         -0.2982407789        2.3682770863        1.5205751405
 H          1.9583625853        3.0027088218        2.2957342679
 H          4.3591653072        2.4882302217        2.4525591054
 H          6.3268316710        1.2069604072        1.7057388836
 H          7.3250665639       -0.5118837961        0.2448228870
 H          7.0692134998       -2.2329723607       -1.4977537518
 H          4.8500549779       -2.7212550337       -2.4508186515
 H          2.4306435973       -2.2010460665       -2.5909093965
 H          0.4644211047       -1.0276183515       -1.7411267298
 H          0.2173520866       -2.2382940862        0.3531803610
 H         -1.0456997200       -4.3349945906       -0.0404500510
 H         -3.4634926094       -4.2245830606       -0.6166503987
 H         -4.6200915454       -2.0315915329       -0.5924222752
 H         -5.5991714141       -0.5658906225        0.6866413215
 H         -7.7295104900        0.6397258075        0.5669502812
  49
  -77.0997018800000       4.757420438526365E-002 !
 C         -5.1781850708        3.5577618797       -0.7268638996
 C         -5.7540954516        2.4791266199       -0.0759142860
 C         -5.0152804081        1.3394888127        0.1816632565
 C         -3.6819026180        1.2608059326       -0.2195818010
 C         -2.8465040400        0.0973261018        0.0054424774
 N         -1.5153358736        0.2219828423       -0.0267167932
 C         -0.9585823504       -0.9786488886        0.1378351506
 C          0.4236147926       -1.2332546034       -0.0081225383
 C          0.8857133493       -2.4537624847       -0.5566162751
 C          2.1862960012       -2.6401191445       -0.9039040149
 C          3.1620960045       -1.6102108820       -0.7161312474
 C          4.4877337469       -1.7729986923       -1.1121022379
 C          5.4138915387       -0.7587868794       -0.9405310526
 C          5.0472839875        0.4520578869       -0.3356030179
 C          5.9768501152        1.5009370304       -0.1326023107
 C          5.5917641965        2.6803360990        0.4780499815
 C          4.2942295754        2.8620661486        0.9062467432
 C          3.3210237439        1.8464440843        0.7151389434
 C          1.9938004532        1.9955618371        1.1301731413
 C          1.0560751605        1.0008822077        0.9050756552
 C          1.3953282326       -0.1826748773        0.2509135392
 C          2.7470315360       -0.3871519580       -0.1263111709
 C          3.7033841730        0.6345142140        0.0851647317
 N         -1.9620672828       -1.9270987920        0.3319391654
 C         -1.9093823150       -3.2266003715        0.7144645946
 C         -3.0562955314       -3.9442268315        0.8511306427
 C         -4.3097423699       -3.3348834907        0.6019996933
 C         -4.3675217820       -1.9993704410        0.3097966666
 C         -3.1839635291       -1.2576001662        0.2230749884
 C         -3.1040578490        2.3640021189       -0.8559277537
 C         -3.8461750977        3.4988519785       -1.1074568199
 H         -5.7622920013        4.4437144651       -0.9279981625
 H         -6.7861414736        2.5298648563        0.2402521086
 H         -5.4692490607        0.5245239924        0.7238500150
 H          0.1698046966       -3.2252331526       -0.8018078154
 H          2.5002230163       -3.5633147194       -1.3690757737
 H          4.7902569814       -2.7077520452       -1.5631458665
 H          6.4353033687       -0.8967113059       -1.2648196258
 H          6.9963187564        1.3626565685       -0.4615073547
 H          6.3192840192        3.4664466600        0.6249802485
 H          3.9968853661        3.7803726605        1.3906605712
 H          1.6968595481        2.9073378541        1.6282569027
 H          0.0395324282        1.1524132450        1.2283261869
 H         -0.9362516205       -3.6402490076        0.9241178807
 H         -3.0087301183       -4.9774231677        1.1527096525
 H         -5.2103137080       -3.9233803903        0.6710641893
 H         -5.3114125002       -1.5080127277        0.1420925020
 H         -2.0667605512        2.2992409512       -1.1450614906
 H         -3.3878779757        4.3420712063       -1.6033636967
  49
  -77.0996175400000       4.351225126562235E-002 !
 C         -5.1794026727        3.5401856908       -0.7942671673
 C         -3.8975417454        3.6597309653       -0.2795419009
 C         -3.1494497526        2.5315671865       -0.0139993842
 C         -3.6744538858        1.2585294074       -0.2524557977
 C         -2.8352556286        0.1061321751        0.0074772311
 N         -1.5042040053        0.2286896451       -0.0101315027
 C         -0.9553812555       -0.9762816161        0.1532488679
 C          0.4230109326       -1.2411879177       -0.0073100248
 C          0.8716635761       -2.4529179418       -0.5850625021
 C          2.1640396226       -2.6309790247       -0.9664095675
 C          3.1422865301       -1.6015810283       -0.7865337464
 C          4.4559150306       -1.7496729745       -1.2259147476
 C          5.3841787887       -0.7369688792       -1.0558010545
 C          5.0345166881        0.4552285570       -0.4053186370
 C          5.9679396540        1.4999356926       -0.1988613051
 C          5.5996053918        2.6584472045        0.4601841941
 C          4.3156017729        2.8234061731        0.9338234559
 C          3.3382878648        1.8124045766        0.7400360666
 C          2.0243310733        1.9442630861        1.2012785200
 C          1.0813185510        0.9564765396        0.9687500473
 C          1.4024147027       -0.2021068867        0.2634385497
 C          2.7432403400       -0.3945543359       -0.1543417196
 C          3.7037021944        0.6221098918        0.0606762241
 N         -1.9629147559       -1.9188387953        0.3571003859
 C         -1.9114292562       -3.2098832719        0.7669741995
 C         -3.0609681882       -3.8988320329        0.9986275470
 C         -4.3161209679       -3.2604794580        0.8543923680
 C         -4.3674921451       -1.9362552782        0.5118364601
 C         -3.1802288090       -1.2404592413        0.2616111442
 C         -4.9589182725        1.1487047201       -0.7855642312
 C         -5.7022055852        2.2831279723       -1.0509495212
 H         -5.7645274496        4.4230462340       -1.0056369240
 H         -3.4818943218        4.6383196884       -0.0883547464
 H         -2.1461235493        2.6080493617        0.3743895115
 H          0.1500857585       -3.2207753112       -0.8256106989
 H          2.4680275171       -3.5453592535       -1.4549672842
 H          4.7470671589       -2.6707837556       -1.7112354131
 H          6.3949229851       -0.8621036490       -1.4167539813
 H          6.9770834415        1.3748211251       -0.5628548265
 H          6.3298391258        3.4416594079        0.6090908807
 H          4.0324129682        3.7254038651        1.4558839372
 H          1.7432463298        2.8375565401        1.7404933358
 H          0.0752773688        1.0903109270        1.3306707483
 H         -0.9352832224       -3.6374686451        0.9291128617
 H         -3.0127777417       -4.9261131294        1.3198894581
 H         -5.2197388721       -3.8141574808        1.0519278237
 H         -5.3061059071       -1.4094262606        0.4617023195
 H         -5.3621707521        0.1778539451       -1.0302820546
 H         -6.6930750605        2.1873205058       -1.4712258658
  49
  -77.0986138300000       1.504313577390320E-002 !
 C         -6.6535590305        2.0859211137       -1.6656509147
 C         -5.4089225518        2.4323220360       -2.1689069545
 C         -4.2785624548        1.7707370683       -1.7364925723
 C         -4.3702704611        0.7494198690       -0.7858902841
 C         -3.1401674928        0.1285320175       -0.3355535167
 N         -2.0275764996        0.2121047992       -1.0781528155
 C         -1.0158386958       -0.3103100250       -0.3930818832
 C          0.3256887611       -0.3306090511       -0.8550798185
 C          0.5442627238       -0.5568359573       -2.2316857686
 C          1.7957149314       -0.7380042552       -2.7308200701
 C          2.9503840923       -0.6224455628       -1.8895051511
 C          4.2404569233       -0.8148694423       -2.3790081482
 C          5.3494831508       -0.6197167579       -1.5719934309
 C          5.2065116413       -0.1847992906       -0.2474381163
 C          6.3239849329        0.0806672480        0.5828343596
 C          6.1516503609        0.5335680922        1.8777565735
 C          4.8896393868        0.7390368415        2.3925405245
 C          3.7368178475        0.4858698243        1.6024696127
 C          2.4429857491        0.7274104395        2.0731001227
 C          1.3343949020        0.4668327175        1.2825480846
 C          1.4644469866       -0.0696877758        0.0001040132
 C          2.7679718533       -0.2431953720       -0.5328051377
 C          3.9010633626        0.0108159958        0.2754510389
 N         -1.4790225017       -0.8103777304        0.8169564105
 C         -0.8610170834       -1.5713808219        1.7561598424
 C         -1.5511224217       -1.9781276085        2.8530496093
 C         -2.9076117088       -1.6090588703        3.0157964633
 C         -3.5447885746       -0.8964849972        2.0345287099
 C         -2.8419212856       -0.5253774211        0.8836127606
 C         -5.6303927338        0.3872219535       -0.3097736601
 C         -6.7589487269        1.0557038055       -0.7455829668
 H         -7.5382638869        2.6107818760       -1.9946706030
 H         -5.3225286033        3.2254939742       -2.8971351785
 H         -3.3012866234        2.0308481370       -2.1118925013
 H         -0.3261913290       -0.6516652331       -2.8632057557
 H          1.9451567013       -0.9770489361       -3.7730991664
 H          4.3717715643       -1.1096498174       -3.4105405269
 H          6.3418727763       -0.7801381413       -1.9679924568
 H          7.3157087417       -0.0685734221        0.1825190039
 H          7.0184139363        0.7353620279        2.4915311422
 H          4.7572389453        1.1045451686        3.4000749171
 H          2.3075732866        1.1302388300        3.0665118286
 H          0.3555725247        0.7112032361        1.6687205748
 H          0.1727558779       -1.8214611174        1.5783119152
 H         -1.0622824953       -2.5816508090        3.5996862786
 H         -3.4355079800       -1.9081423960        3.9069032489
 H         -4.5804498514       -0.6188793516        2.1367831933
 H         -5.7348189810       -0.4364043065        0.3792057098
 H         -7.7294683839        0.7700031710       -0.3659816535
