  49
        -77.10088626
 C         -5.5592529031        3.4248809444       -0.5025793399
 C         -5.9958278029        2.1436407805       -0.7983806252
 C         -5.1420393890        1.0658634260       -0.6626889883
 C         -3.8320571767        1.2561774679       -0.2211009254
 C         -2.9010235497        0.1564879342       -0.0657990233
 N         -1.5827408403        0.3433558693       -0.2038660464
 C         -0.9633683991       -0.8311910905       -0.0705046841
 C          0.4124747949       -1.0738401201       -0.2848155453
 C          0.8402767308       -2.3242056478       -0.7964402368
 C          2.1510796231       -2.6152640704       -0.9978351704
 C          3.1764168331       -1.6705077438       -0.6756335003
 C          4.5267489507       -1.9738223574       -0.8316294714
 C          5.5058605103       -1.0381178989       -0.5479545945
 C          5.1609821780        0.2454938292       -0.1008598525
 C          6.1419434451        1.2243019141        0.1893752022
 C          5.7775426373        2.4848733433        0.6258786972
 C          4.4502221013        2.8166129222        0.7916331345
 C          3.4280854679        1.8708302487        0.5154509270
 C          2.0712182091        2.1702745496        0.6741740930
 C          1.0926668130        1.2269346192        0.4069880964
 C          1.4181782108       -0.0516412720       -0.0437002482
 C          2.7869552169       -0.3833048363       -0.2188752182
 C          3.7894110023        0.5756903717        0.0636441976
 N         -1.9053588661       -1.8166456058        0.2364009872
 C         -1.7578276788       -3.0892898090        0.6757332445
 C         -2.8499258378       -3.8271319141        1.0145325422
 C         -4.1428572538       -3.2550120887        0.9539684247
 C         -4.2864357732       -1.9445508488        0.5899025687
 C         -3.1562111682       -1.1996154540        0.2310309273
 C         -3.3948024157        2.5546819447        0.0514813304
 C         -4.2528604986        3.6265590502       -0.0846041047
 H         -6.2316669032        4.2634184826       -0.6080079753
 H         -7.0069854443        1.9853021549       -1.1450786802
 H         -5.4818077626        0.0780901825       -0.9351838123
 H          0.0932380362       -3.0379855138       -1.1152944514
 H          2.4430307584       -3.5614527330       -1.4298593414
 H          4.8066798211       -2.9581009413       -1.1806864941
 H          6.5493042571       -1.2894291974       -0.6730469081
 H          7.1837101787        0.9694944915        0.0604043215
 H          6.5439213338        3.2171259783        0.8386510421
 H          4.1669446816        3.8006454371        1.1347012253
 H          1.7866509993        3.1560283626        1.0138581561
 H          0.0541774894        1.4822899127        0.5358334756
 H         -0.7521759103       -3.4643197947        0.7750717749
 H         -2.7236103236       -4.8406296400        1.3572939589
 H         -4.9994262092       -3.8469240199        1.2336469083
 H         -5.2499958795       -1.4626816134        0.6047229968
 H         -2.3748981417        2.6985977352        0.3716018034
 H         -3.9049711905        4.6255415608        0.1345190375
