  49
        -73.20728108
 O          4.1366018963       -0.5798941353        0.1528638731
 B          2.8150108487       -0.7670295458       -0.1091383953
 O          2.0360609735       -1.2741646054        0.8682625308
 C          2.1304728657       -0.4490537203       -1.4935249047
 C          2.8623828781       -0.5069791406       -2.6791986212
 C          2.2737209664       -0.2612879729       -3.9062360667
 C          0.9283365621        0.0582945055       -3.9630550390
 C          0.1905899303        0.1284801840       -2.7948013618
 C          0.7674672985       -0.1236916726       -1.5544465135
 Si        -0.2876777312        0.0248795236        0.0162056299
 C          0.6091483429        1.0719431566        1.3187608749
 C          1.4721488368        2.0867949507        0.9169302497
 C          2.1492779890        2.8599159809        1.8427506058
 C          1.9747130197        2.6297505956        3.1969980408
 C          1.1219676766        1.6221007684        3.6145669829
 C          0.4479459466        0.8534267060        2.6819989065
 C         -1.8517400190        1.0043009115       -0.4616840553
 C         -1.9267700630        2.3846981237       -0.3069552246
 C         -3.0660537232        3.0858064269       -0.6600507604
 C         -4.1604795172        2.4141725577       -1.1781213128
 C         -4.1064429001        1.0396673838       -1.3378833446
 C         -2.9633714388        0.3472131154       -0.9819269997
 C         -0.9255357909       -1.6504210789        0.6284430973
 C         -1.9314957722       -1.7078536165        1.5889169948
 C         -2.4282649477       -2.9199154927        2.0332210719
 C         -1.9310795998       -4.1032137933        1.5134815152
 C         -0.9405213683       -4.0637943152        0.5464684560
 C         -0.4453134577       -2.8481131603        0.1100378555
 H          4.6592682164       -0.2083846871       -0.5556893307
 H          2.4769999502       -1.4306427691        1.7037303747
 H          3.9137567744       -0.7666684175       -2.6427938650
 H          2.8608408022       -0.3178065490       -4.8118113560
 H          0.4564572020        0.2540847931       -4.9154265296
 H         -0.8575962227        0.3865946433       -2.8451044989
 H          1.6182630342        2.2681987100       -0.1391260946
 H          2.8154829658        3.6435032281        1.5096462873
 H          2.5036055417        3.2304785787        3.9230162401
 H          0.9838795885        1.4356966677        4.6705295119
 H         -0.2077308011        0.0625300507        3.0155776769
 H         -1.0793521855        2.9160907607        0.1032010559
 H         -3.1030013024        4.1584752184       -0.5294896583
 H         -5.0521526319        2.9587500041       -1.4540354297
 H         -4.9579967914        0.5081272979       -1.7389626201
 H         -2.9296803754       -0.7262727959       -1.1034478113
 H         -2.3377757740       -0.7873466844        1.9845936792
 H         -3.2073441957       -2.9436497475        2.7823564618
 H         -2.3188419605       -5.0520344550        1.8563566495
 H         -0.5561668811       -4.9849176208        0.1311544366
 H          0.3296612749       -2.8201092263       -0.6413969899
