  86
       -128.68606673
 C        -12.1010992024        0.0543524538        0.0764340416
 C        -11.3895660238        1.1296389209        0.5817669538
 C        -10.0073755041        1.1190539341        0.5636409267
 C         -9.3131825508        0.0335064308        0.0342869603
 C         -7.8433181848        0.0215334018        0.0139497233
 C         -7.1488595269       -0.4535624135       -1.0964594366
 C         -5.7680882184       -0.4623564673       -1.1161874928
 C         -5.0406679858       -0.0063371483       -0.0210487888
 C         -3.5636706927       -0.0213130178       -0.0347291555
 C         -2.8683032796       -0.9021342719        0.8065757279
 C         -3.5417924076       -1.8225176044        1.6521452365
 C         -2.8518788084       -2.6664314631        2.4670377734
 C         -1.4424170720       -2.6474421595        2.4863321057
 C         -0.7578326560       -1.7933161013        1.6785920554
 C         -1.4393101832       -0.9016804499        0.8098625670
 C         -0.7408176149       -0.0327863644       -0.0374312547
 C          0.7409369129       -0.0256639878       -0.0250659698
 C          1.4222762134        0.8622179413        0.8166206173
 C          0.7229886042        1.7589811325        1.6659112866
 C          1.3905255810        2.6318952913        2.4676907546
 C          2.7998002368        2.6666948105        2.4605595420
 C          3.5065327351        1.8194880805        1.6637141537
 C          2.8511852211        0.8789339728        0.8260816623
 C          3.5636368065       -0.0052599206        0.0030424780
 C          5.0406838920        0.0075189803        0.0136623507
 C          5.7527618896        0.4591737942       -1.0933983558
 C          7.1334663450        0.4746417100       -1.0832434575
 C          7.8431494226        0.0276279701        0.0290867878
 C          9.3132215005        0.0348913805        0.0345966871
 C         10.0262565351       -1.0394616428        0.5617349513
 C         11.4085426517       -1.0349106687        0.5608818842
 C         12.1011113459        0.0449997828        0.0393141195
 C         11.4024335967        1.1200945728       -0.4840098329
 C         10.0200999666        1.1147191543       -0.4894313885
 C          7.1277425868       -0.4282878212        1.1342544631
 C          5.7469522481       -0.4326384444        1.1291842041
 C          2.8801914391       -0.9014464254       -0.8317599480
 C          3.5656072556       -1.8355146468       -1.6524060348
 C          2.8870891976       -2.6960164373       -2.4594290042
 C          1.4778278398       -2.6805667277       -2.4958246029
 C          0.7818849797       -1.8138153704       -1.7116171110
 C          1.4512925555       -0.9052171705       -0.8510640218
 C         -1.4340875383        0.8360205652       -0.8889996823
 C         -0.7467945419        1.7193076289       -1.7618938575
 C         -1.4257982248        2.5761920565       -2.5712524750
 C         -2.8351244544        2.6079302553       -2.5483585430
 C         -3.5304859707        1.7728985667       -1.7291026713
 C         -2.8630990096        0.8485286387       -0.8829088025
 C         -5.7317400194        0.4648028632        1.0913607689
 C         -7.1122228612        0.4835835789        1.1062232242
 C        -10.0392769960       -1.0411672060       -0.4740147093
 C        -11.4213601913       -1.0309988780       -0.4505609012
 H        -13.1808081085        0.0623608209        0.0927354891
 H        -11.9148207842        1.9813637526        0.9894977558
 H         -9.4575200221        1.9685693715        0.9431013813
 H         -7.6978310400       -0.7996807665       -1.9600751026
 H         -5.2410370445       -0.8306903587       -1.9848519095
 H         -4.6210840030       -1.8453731685        1.6331389943
 H         -3.3796124281       -3.3610042538        3.1041035199
 H         -0.9131759880       -3.3222043925        3.1430274689
 H          0.3219710136       -1.7808715897        1.6809582058
 H         -0.3565334722        1.7337718161        1.6589101366
 H          0.8477734596        3.3094495420        3.1103424809
 H          3.3138445928        3.3758905674        3.0927214330
 H          4.5855987221        1.8542911616        1.6542366027
 H          5.2134850445        0.8043229411       -1.9641756783
 H          7.6709788518        0.8168256340       -1.9556680072
 H          9.4903474715       -1.8914662786        0.9546462560
 H         11.9486223461       -1.8779480072        0.9668522595
 H         13.1809557629        0.0486881246        0.0407359932
 H         11.9376632069        1.9670685268       -0.8879246296
 H          9.4796642490        1.9632556223       -0.8835456057
 H          7.6606784283       -0.7629769196        2.0123914957
 H          5.2026936098       -0.7859885903        1.9935405324
 H          4.6446385161       -1.8553047276       -1.6205003395
 H          3.4234071244       -3.4012753768       -3.0773279391
 H          0.9582191392       -3.3682263007       -3.1467905024
 H         -0.2978689706       -1.8033258644       -1.7267718928
 H          0.3328595251        1.6965977032       -1.7670343778
 H         -0.8924740307        3.2436252020       -3.2321609003
 H         -3.3577809297        3.3051963541       -3.1866614386
 H         -4.6095100658        1.8049783039       -1.7077401795
 H         -5.1757674279        0.8214303175        1.9467154847
 H         -7.6324838348        0.8387006852        1.9835234900
 H         -9.5140250092       -1.8978093065       -0.8708166742
 H        -11.9713996509       -1.8738356016       -0.8426050364
