86
 energy: -128.737265981462 gnorm: 0.000053506126 xtb: 6.7.1 (edcfbbe)
C          -12.10745820607862        0.00106882324878       -0.00016443000120
C          -11.41131235457225        0.61741254721111        1.02665311436164
C          -10.02850605479605        0.62003888544384        1.02603052043503
C           -9.31792945202879        0.00062486658755        0.00002426286088
C           -7.84644799567518        0.00032953362431        0.00017945383129
C           -7.13372643802296        1.14846374825964        0.33987599300332
C           -5.75218109978479        1.14902367838010        0.33845982445153
C           -5.04506190078517       -0.00011948802446        0.00017061985712
C           -3.56384674335244       -0.00029394231701        0.00009368631465
C           -2.86751908415056        0.20054572387162       -1.19898544599605
C           -3.54379101581800        0.41845961894629       -2.42860857529834
C           -2.85518508558051        0.61380788019268       -3.58609154270061
C           -1.44490881160049        0.60299365688719       -3.58718597073252
C           -0.75869786813022        0.40168270410520       -2.42954344439149
C           -1.43795844966470        0.19773860431259       -1.19957890533943
C           -0.74150973075033       -0.00041904255598       -0.00006598294079
C            0.74151056432422       -0.00038429549299       -0.00012527761458
C            1.43794409602151       -1.19990639142805       -0.19827747043356
C            0.75867100301115       -2.42985970950729       -0.40224360229729
C            1.44487166093499       -3.58751630358991       -0.60351379034881
C            2.85514889840123       -3.58645101037685       -0.61425577339290
C            3.54376670383587       -2.42897806115279       -0.41889471353429
C            2.86750590760351       -1.19934000330379       -0.20102873678140
C            3.56384739168838       -0.00027793408777       -0.00014750623726
C            5.04506250404083       -0.00021632131485       -0.00012076939946
C            5.75234528064187       -0.33841559151177        1.14894714178821
C            7.13388993342624       -0.33968924000825        1.14822470740217
C            7.84644715981623        0.00005227321817       -0.00000016346572
C            9.31792883845796        0.00030386551059        0.00014063849470
C           10.02841336590704        1.02646895696478       -0.61911766454559
C           11.41121879525994        1.02737508956547       -0.61622765970520
C           12.10745678750404        0.00067607954621        0.00021091159298
C           11.41146022235472       -1.02618700844384        0.61664765994856
C           10.02865298612249       -1.02566128165801        0.61945800263010
C            7.13393249393611        0.33962202291106       -1.14829946092779
C            5.75238485509958        0.33807333568128       -1.14913769696941
C            2.86741904568879        1.19873384003762        0.20074653656502
C            3.54358691309196        2.42841923790349        0.41863504522608
C            2.85488344909135        3.58583464210185        0.61403664680259
C            1.44460666442284        3.58679384974564        0.60330372970727
C            0.75849369004029        2.42909041196337        0.40200493960626
C            1.43785816190693        1.19919233744058        0.19801018377513
C           -1.43784250170789       -0.19855161554574        1.19951947862897
C           -0.75846550466439       -0.40256840007647        2.42940690559717
C           -1.44456786752965       -0.60382901201514        3.58712357745867
C           -2.85484544143329       -0.61449698030694        3.58619180934392
C           -3.54356106726686       -0.41907680218279        2.42878690725335
C           -2.86740454612999       -0.20123172959053        1.19908781108144
C           -5.75254900336270       -1.14905078317873       -0.33806222753077
C           -7.13409591645982       -1.14805036909450       -0.33946686233153
C          -10.02856276590749       -0.61854434876530       -1.02609492135131
C          -11.41136908788006       -0.61547381091276       -1.02690220395904
H          -13.18780678624326        0.00123835421281       -0.00023527797364
H          -11.94892287772971        1.09675790339226        1.83245281091168
H           -9.49123094966363        1.08922599357323        1.83787289565677
H           -7.66834981645271        2.05414340390736        0.58798234781462
H           -5.20985975265162        2.04767431961663        0.59744641593921
H           -4.62413826005090        0.42785889705902       -2.42541857413525
H           -3.38320150943969        0.77923113208623       -4.51418509441563
H           -0.91557141113733        0.75776342579007       -4.51630690215491
H            0.32166244181487        0.39461084278809       -2.42600394506777
H           -0.32168999661625       -2.42630150686289       -0.39522579853433
H            0.91552430934102       -4.51662771974255       -0.75830122771051
H            3.38315572242484       -4.51455890226536       -0.77963412681732
H            4.62411464686409       -2.42580438495862       -0.42823142564615
H            5.21015253359009       -0.59742900401656        2.04766777597504
H            7.66864481820553       -0.58774741331377        2.05384024228773
H            9.49106253800502        1.83819321426287       -1.08842100410358
H           11.94875678548393        1.83327628985203       -1.09548147071477
H           13.18780547567327        0.00081591228165        0.00023473552359
H           11.94919046841383       -1.83195169149505        1.09591822983751
H            9.49149481360083       -1.83753509882318        1.08872515246639
H            7.66871767383925        0.58779175569625       -2.05386584282045
H            5.21022256466357        0.59699809755426       -2.04790195560288
H            4.62393479413586        2.42532789314366        0.42797531376089
H            3.38282062010537        4.51397455496433        0.77945768659025
H            0.91518843326379        4.51586265494647        0.75810473421119
H           -0.32186674443211        2.42545693484264        0.39498463428692
H            0.32189535841524       -0.39560216670140        2.42575220702677
H           -0.91514018039727       -0.75865343546941        4.51618295432835
H           -3.38277360162546       -0.77987451560180        4.51434469128700
H           -4.62390972402102       -0.42835802011780        2.42571360750997
H           -5.21051713994789       -2.04787947015733       -0.59703631420113
H           -7.66901036267896       -2.05354877647439       -0.58760627133504
H           -9.49133055899202       -1.08792124183435       -1.83785523997972
H          -11.94902670525242       -1.09464596935405       -1.83277227399381
