86
 energy: -128.671767630849 gnorm: 0.000051695866 xtb: 6.7.1 (edcfbbe)
C          -12.11490521080502        0.00676609410847       -0.08945579760493
C          -11.43458659413689        0.35635642074126        1.06559378516546
C          -10.05206351421933        0.35843610596950        1.08526518733697
C           -9.32524018314654        0.00369699991366       -0.04984919489051
C           -7.85528904101956        0.00313798945459       -0.02985242744244
C           -7.13264507736494       -1.02717422555896       -0.63035626616617
C           -5.75304648391306       -1.03247240281511       -0.60501321976380
C           -5.04537111864420        0.00453049130083        0.00452547002756
C           -3.57688537957936        0.00583027669254        0.01930870199480
C           -2.87639612049589       -1.02695775778759        0.69040216447552
C           -3.55937515549275       -2.01828345990482        1.42467437922654
C           -2.88230639387957       -2.97634228190968        2.14294805618216
C           -1.49063918786264       -2.95480183329255        2.18897606534403
C           -0.79468729616960       -1.98716801321768        1.49888219338501
C           -1.45075304941863       -1.03037259842278        0.70576975623159
C           -0.72193568134555        0.00219909644621        0.03841268591359
C            0.72182948201924       -0.00464451387786        0.04083278298834
C            1.44845957074425        1.08092787066426        0.62143299395964
C            0.78946094837104        2.10267709234215        1.32586091395509
C            1.48296350858330        3.12377043968758        1.93751240949759
C            2.87468426461478        3.13658040825360        1.90305978249387
C            3.55406560014944        2.12009020802095        1.27192045206654
C            2.87411251019418        1.07486496539474        0.61414239922292
C            3.57741420521402       -0.00753309779407        0.02832822974725
C            5.04508206461793       -0.00451812311024        0.01404451389695
C            5.75159126213535        0.99490920353885       -0.65746700775846
C            7.13102978190514        0.99464848237339       -0.67720527386213
C            7.85664453179796       -0.00062754864470       -0.02282129592639
C            9.32616307555265       -0.00036254938326       -0.04722900751706
C           10.03505934543794       -1.18882278323882       -0.21426884766351
C           11.41728848073911       -1.18682730392874       -0.24555025438326
C           12.11626026294351        0.00088815196778       -0.10425035841658
C           11.42262396585649        1.18781123001706        0.06682865258039
C           10.04027766924262        1.18854278636964        0.09238385868508
C            7.15126568782144       -0.99677959022303        0.65194293011572
C            5.77168715559740       -1.00062700025265        0.66875767954349
C            2.86663484472986       -1.09108344609124       -0.54657226774384
C            3.53882457265178       -2.13898880442362       -1.20812426134342
C            2.85255806192804       -3.15738195040974       -1.82856198798956
C            1.46063339278891       -3.14354878178722       -1.84880650028657
C            0.77431140529403       -2.11913824880557       -1.23469098950514
C            1.44071485363483       -1.09518548004257       -0.54045408325406
C           -1.43872438866483        1.03994586337063       -0.63424007038082
C           -0.77046778354485        1.99877679838426       -1.41464608551827
C           -1.45502276493914        2.97001724864732       -2.11098883334499
C           -2.84713809643181        2.99283753829083       -2.08578618389164
C           -3.53548599489294        2.03295794670598       -1.38086453541101
C           -2.86464437214401        1.03908374648657       -0.63884754293979
C           -5.76875679018390        1.04010889924474        0.59778492952477
C           -7.14859517769938        1.03352464332522        0.58918884707201
C          -10.02038624634957       -0.34981994444535       -1.20501249695041
C          -11.40289196199844       -0.34462329634770       -1.22469339770096
H          -13.19511404937003        0.00815463530466       -0.10471622276610
H          -11.98471080309960        0.62716375710369        1.95558337035399
H           -9.52767265998173        0.61686136409101        1.99417340540226
H           -7.66102796998872       -1.84194366402546       -1.10438730061808
H           -5.20752477896619       -1.83703305611882       -1.07795574211531
H           -4.63872000379929       -2.00946849115936        1.43360292274646
H           -3.43085682695583       -3.72950217526345        2.68969340047555
H           -0.95610083073330       -3.68560176425627        2.77798932324909
H            0.28238496188860       -1.95966017028803        1.56655191162368
H           -0.28813043136989        2.08379089599765        1.38768758646231
H            0.94579763163610        3.90361577947108        2.45715508061086
H            3.42164074571245        3.93034204717245        2.39077458233604
H            4.63316663829098        2.10817140406887        1.29246167948559
H            5.20484456304862        1.76281085447942       -1.18655550645661
H            7.65634058730864        1.76234564112178       -1.22702590461530
H            9.49629153875849       -2.11681724358024       -0.34208172708456
H           11.95250012613059       -2.11565547224140       -0.38317307933298
H           13.19638518068834        0.00145592725791       -0.12703119137039
H           11.96223726007883        2.11709354622148        0.18244251420601
H            9.50636207017262        2.11604702729696        0.24222359413322
H            7.69288786073670       -1.76324375458565        1.18747330982063
H            5.24110097042048       -1.76967418673398        1.21246682252682
H            4.61761135938318       -2.12798941506443       -1.24014211305636
H            3.39404755569916       -3.95334476997122       -2.31878294234310
H            0.91742746457707       -3.92501979794817       -2.35965364801768
H           -0.30371198631678       -2.09990764137460       -1.28678979506857
H            0.30733342110845        1.97053028428310       -1.46762068010780
H           -0.91089478915661        3.70237081023785       -2.68919749441736
H           -3.38687523844084        3.74818586951824       -2.63825299053325
H           -4.61453540937239        2.02507985675453       -1.40642819086277
H           -5.23577122341607        1.84511987384260        1.08409011358695
H           -7.68917083589848        1.84767313024458        1.05036034134853
H           -9.47095925447329       -0.60955722955957       -2.09860813905316
H          -11.92801698822615       -0.61420748159909       -2.13005155479382
