86
 energy: -128.671383492718 gnorm: 0.000063896370 xtb: 6.7.1 (edcfbbe)
C          -12.11605723490223        0.00989983496493        0.00116009902254
C          -11.41645370726055        0.85239047630169        0.84966202013631
C          -10.03374028690631        0.84575406807808        0.85210556429768
C           -9.32622280856547       -0.00033533253303        0.00009747928498
C           -7.85604368883271       -0.00464520783253       -0.00115928087823
C           -7.14281945642261       -0.05739124178076       -1.19791995342866
C           -5.76273918659130       -0.04971942587185       -1.20069732480431
C           -5.04615814361129       -0.00876241163757       -0.00423363928053
C           -3.57638531139712       -0.00838587220933       -0.00582192772848
C           -2.86954749815111       -1.07979253360495        0.59296403089228
C           -3.54315666578017       -2.17433504875386        1.17284310840824
C           -2.86026650646218       -3.16869889766252        1.83500496654822
C           -1.47493645611972       -3.09587413472716        1.95743645127217
C           -0.78469556755119       -2.06228294980752        1.36278468564280
C           -1.44353903957550       -1.06812930986990        0.62003113068032
C           -0.72240746701127       -0.00542274762266       -0.00634507638287
C            0.72251861845477       -0.00219091634249       -0.00456552250479
C            1.44156057415197        1.07036578263009        0.60727908913702
C            0.78036160858886        2.07528327577881        1.33332468993081
C            1.46851136987959        3.11852112838982        1.91329138708185
C            2.85405951924395        3.19061654597862        1.79262540077423
C            3.53908702814923        2.18678886582395        1.14726144398350
C            2.86757504972968        1.08290962925417        0.58279599499321
C            3.57649664812651        0.00343836750845        0.00113977843220
C            5.04622868673695        0.00589080464939        0.00573780777850
C            5.76547554766162        0.03057497522810       -1.18954769681108
C            7.14554014585918        0.04282748690874       -1.18360285896098
C            7.85592541021629        0.01121960471568        0.01555759854800
C            9.32612929811719        0.01403053825305        0.02071473556002
C           10.03549588369336       -0.81775952806490        0.88514444509273
C           11.41823762836044       -0.81683394376403        0.88695716454908
C           12.11584180027754        0.01923956664604        0.03044906184545
C           11.42111642522868        0.85278238463113       -0.83084407519167
C           10.03840763217796        0.84849986603885       -0.83873012453091
C            7.13733877024286       -0.02317880052058        1.20974460561788
C            5.75725674254773       -0.01614681856663        1.20601249563625
C            2.87424520449552       -1.07831045916019       -0.58428316916620
C            3.55220202988692       -2.17913763332101       -1.14698907587936
C            2.87353181351553       -3.18506013736176       -1.79582328138781
C            1.48817854884462       -3.11834501383766       -1.92175250001424
C            0.79372696563654       -2.07829255081450       -1.34355585975491
C            1.44829157797822       -1.07131469484302       -0.61436096775245
C           -1.44612784281294        1.05497185608553       -0.63364365375462
C           -0.78935254653558        2.04966273165332       -1.37750192844442
C           -1.48168141345295        3.08178105588940       -1.97228432051893
C           -2.86701890078386        3.15245958990999       -1.84870917411577
C           -3.54785524259837        2.15732314612016       -1.18558784279759
C           -2.87209099684323        1.06404757549308       -0.60581123948033
C           -5.75998795844566        0.03316055723138        1.19383663356403
C           -7.14005186740503        0.04493040756330        1.19407921349116
C          -10.04054603330839       -0.84141509104370       -0.85116571719159
C          -11.42327271854348       -0.83783910424129       -0.84771268299223
H          -13.19641336724198        0.01398652555234        0.00140823758169
H          -11.95156406640412        1.51896387645793        1.51109408751188
H           -9.49375786962287        1.51679725209190        1.50478311798982
H           -7.67832336491681       -0.08376777980014       -2.13618522071105
H           -5.22447981379881       -0.09300362380568       -2.13717922877334
H           -4.61849256874798       -2.22655974311214        1.09418069370622
H           -3.40012900954960       -3.99638211198805        2.27141886673832
H           -0.93888847214654       -3.85229313412249        2.51164876393591
H            0.28951313352553       -2.01736965592565        1.46036288851207
H           -0.29398866246225        2.03091389748589        1.42953636227382
H            0.93070776025220        3.88324633916309        2.45426250266298
H            3.39223598093064        4.02564197540600        2.21696404551094
H            4.61451941918940        2.23890768313768        1.06981408376172
H            5.22927769955807        0.05811039403047       -2.12783270977029
H            7.68338747634646        0.05670499418360       -2.12082606906780
H            9.49707429479786       -1.48347423561406        1.54456229840205
H           11.95494149601484       -1.47227656997626        1.55816017792058
H           13.19619833535171        0.02123648263510        0.03417438391741
H           11.96005154431838        1.51025232622690       -1.49827026382016
H            9.50210998872048        1.51227388765793       -1.50183317999513
H            7.66866762185754       -0.03496701361337        2.15070579765624
H            5.21458899163473       -0.04551910056489        2.14051502977985
H            4.62751945489428       -2.22714963851834       -1.06545650526654
H            3.41664114276581       -4.01751569591964       -2.21892036952160
H            0.95550957243512       -3.88475488798629       -2.46541412857817
H           -0.28044603519283       -2.03795530282266       -1.44362591181089
H            0.28487067966401        2.00631179326368       -1.47573692755163
H           -0.94731095352790        3.83873467964043       -2.52738024289730
H           -3.40855417205959        3.97911908503623       -2.28499263922351
H           -4.62318954059396        2.20805075773640       -1.10609048934759
H           -5.21955003738015        0.07476431024172        2.12915627746660
H           -7.67343376852440        0.07275313385434        2.13353626942423
H           -9.50601120118953       -1.51635745613295       -1.50427797746415
H          -11.96376905675579       -1.50040315670510       -1.50877937428291
