128
 energy: -204.828805060745 gnorm: 0.000083151648 xtb: 6.7.1 (edcfbbe)
N           -7.94925357653226        5.97391288536813       -1.13975093194441
C           -7.32748846731560        5.01443319280257       -1.03177896586798
C           -6.57299124013483        3.83221535317786       -0.87570077073710
C           -6.71172867793529        3.09358549268660        0.28183256943909
C           -5.97364102238177        1.92346608597005        0.45995883814070
C           -5.10318859722009        1.49000282010101       -0.51404682657290
N           -4.40771395559497        0.28450409369834       -0.31797500954736
C           -5.01213797105751       -0.95013892343457       -0.17988469590383
C           -6.45772167371814       -1.11898342194208       -0.25416037710103
C           -7.15675423180870       -0.52770719389925       -1.30564620051952
C           -8.52608246012725       -0.64181001718023       -1.40908744954845
C           -9.25655863028974       -1.35182646486985       -0.45398343779051
C          -10.67445739752658       -1.47725054017836       -0.52769348882261
C          -11.36694302960500       -2.17109430019415        0.40529953929917
C          -10.70305817653773       -2.80265746633043        1.49819696692240
C          -11.39874702193612       -3.51840293334595        2.47464527065310
C          -10.72715716897208       -4.11871659522765        3.52440827750546
C           -9.35136478603530       -4.02062270515755        3.62662620956940
C           -8.61479406657289       -3.31482892160567        2.67309484615662
C           -7.19687021452027       -3.19075773272275        2.74536983848009
C           -6.49996534589861       -2.49957230798673        1.81319149095746
C           -7.15374865562658       -1.86628891723164        0.71541384028718
C           -8.56487031503867       -1.97141042109354        0.61692621950597
C           -9.29261476159901       -2.69572461555442        1.59405120869875
N           -4.13735992847819       -1.90896789880170       -0.02500241980923
C           -2.91308827351630       -1.31285992998823       -0.05272639039377
C           -1.63594280253518       -1.93262130713739        0.02507343251966
C           -1.50204144162992       -3.32163855843066        0.13347637702725
C           -0.26111399336601       -3.90244077423438        0.15370389546147
C            0.88849640757536       -3.10546949949673        0.05311545421083
C            2.22075266251326       -3.72723696733644        0.04140418625415
C            2.52043053476533       -4.78566843382010        0.89757642238249
C            3.76904542615889       -5.37424690073736        0.88863655249802
C            4.74707439128833       -4.92707666807715        0.00420867731663
N            6.01200586661038       -5.53420041836219       -0.01937210411891
C            6.25404691040728       -6.88976103906253       -0.12034199871021
C            5.35757782776685       -7.93981139723426       -0.26415699292833
C            5.87145931181016       -9.21833897706679       -0.36782061590668
C            7.24454049410599       -9.45540917761192       -0.33958324452004
C            8.14235815411155       -8.41290267010955       -0.22221394688424
C            7.64989707692238       -7.11808650451329       -0.11671175438283
C            8.27323573329610       -5.82880973743822       -0.00533413916189
C            9.59566253426043       -5.40839609915585        0.06034749940720
C            9.85587089795590       -4.05812437178140        0.18585913667642
C            8.81682174355217       -3.13253788321823        0.26293537174569
C            7.49366604727284       -3.52631785783042        0.20141435717423
C            7.22574800781473       -4.87980514290829        0.04912855915693
C            4.45609450682153       -3.87419562981978       -0.85894306531997
C            3.21061964733287       -3.27934244956656       -0.83208369571912
C            0.75542508289414       -1.73102233525535       -0.04121070431981
C           -0.49488423565002       -1.09991412354831       -0.04688513515736
C           -0.64637404857432        0.34533511183202       -0.10685258309119
C            0.45926253913362        1.20161506618783       -0.05897453635248
C            0.33932507512731        2.57971923680731       -0.08174872628554
C            1.53042709348102        3.43868774469625       -0.01830939511472
C            1.62528752278298        4.58294207295988       -0.80861436724915
C            2.73557468344837        5.40082398408506       -0.74254099713465
C            3.78311684946095        5.08907026258353        0.11982670431501
N            4.90984410818663        5.92198131135033        0.19696797534419
C            5.66644231866983        6.36134717618365       -0.87094457946406
C            5.54772127359865        6.06170543176350       -2.22111748178182
C            6.46408306344794        6.62282775774138       -3.08999670778403
C            7.48285002214469        7.45750898859664       -2.63407487321846
C            7.62011539118200        7.74082619974224       -1.28963868208581
C            6.71087207337115        7.18864424236725       -0.39615223634326
C            6.56425481370175        7.25135454022955        1.03136525122626
C            7.26120682512624        7.90993156050168        2.03664920756461
C            6.82929145498470        7.77319412036947        3.34101561796664
C            5.70949705721062        7.00216673955309        3.64764898031650
C            5.00033085764135        6.33709791074873        2.66569500047585
C            5.44255043019120        6.45283575624947        1.35499412066121
C            3.70026424867515        3.94549933024070        0.90946696846475
C            2.58560944909602        3.13393752365170        0.84004427547441
C           -0.94029817820072        3.14520599455863       -0.14084612213063
C           -2.04879557350912        2.34036526497568       -0.18362301650311
C           -1.93435621801376        0.94264773986790       -0.18516613082271
C           -3.05056135908038        0.06308039174356       -0.21951078457830
C           -4.94820916912893        2.21227557683929       -1.73125261303279
C           -4.10025729868644        1.77516414332492       -2.77071853871738
C           -3.97460663848787        2.50379467961172       -3.92130537961229
C           -4.68890574368381        3.69916335267245       -4.08652900123927
C           -5.53201063088556        4.14154940973619       -3.10374230293598
C           -5.68766657192511        3.41074136045166       -1.90905169814775
H           -7.38983154785892        3.42277190695392        1.05466579930736
H           -6.08442788996459        1.35246492461464        1.36960979880031
H           -6.61276997801383        0.01019213980512       -2.06900525822970
H           -9.04346908155800       -0.17957524727315       -2.23728152546365
H          -11.18356685348213       -0.99912327600071       -1.35254302882063
H          -12.44216056061765       -2.26052927225721        0.34180059203287
H          -12.47382488985956       -3.60001904424537        2.40158666475179
H          -11.28223855261835       -4.66890639664249        4.27053101144207
H           -8.83268786192523       -4.49255043042682        4.44883799634053
H           -6.68481459096231       -3.66624727195584        3.57000063478413
H           -5.42514222797031       -2.42741484838480        1.87421902415586
H           -2.40286573986160       -3.91414669111312        0.18607080638799
H           -0.16341214548631       -4.97601956586188        0.21514261845941
H            1.77480610000248       -5.13220909281684        1.59782196053270
H            3.99807815425304       -6.17631493634721        1.57457970412149
H            4.29290742208354       -7.76554728573884       -0.30352080340200
H            5.19354045733116      -10.05251915568897       -0.47711320942936
H            7.60696841226952      -10.46983731856347       -0.42046773713099
H            9.20672683178717       -8.59557898478050       -0.21694136859671
H           10.40094253253146       -6.12664423786459        0.01672838740326
H           10.87756360287737       -3.71056074811643        0.23478030303444
H            9.05120821780268       -2.08388971625293        0.37631087922554
H            6.69612598672314       -2.80281775749600        0.27849227968416
H            5.20545689750393       -3.53840530835662       -1.56045194788603
H            2.99119195277974       -2.47656913529560       -1.52060115233980
H            1.65808701815840       -1.14455120774408       -0.10052665537847
H            1.45256119257760        0.78684886302528       -0.00816905040700
H            0.82384637614404        4.82882083723273       -1.48964984878769
H            2.79244845795689        6.29279731057709       -1.34872737421167
H            4.77175037755047        5.40353787906333       -2.58217995164052
H            6.39110480870653        6.40756932843353       -4.14628544135310
H            8.17815883718590        7.87907193364616       -3.34528913102213
H            8.41867773136997        8.37560042666414       -0.93527759872990
H            8.12011507960739        8.51946303621136        1.79792097254420
H            7.35832500498211        8.27605701071552        4.13742757710348
H            5.38646673020839        6.92569668198103        4.67587782721899
H            4.12442717789471        5.75582493705695        2.91188174698624
H            4.51645405979951        3.69465865873886        1.57065133306428
H            2.52506277726931        2.26027352413416        1.47222284308135
H           -1.05495517619578        4.21864913092411       -0.12086991732383
H           -3.02795348509539        2.79236029023829       -0.19301964974899
H           -3.54989100333001        0.85373602700970       -2.65077709807714
H           -3.32353375578436        2.15857308969672       -4.71011125780638
H           -4.57463765038669        4.26631533218136       -4.99776425953566
H           -6.09325107274440        5.05653298450411       -3.22735251906505
