128
 energy: -204.761740944445 gnorm: 0.000113059513 xtb: 6.7.1 (edcfbbe)
N           -8.50120055041043        4.00774834266700        1.35148825923594
C           -7.71084646351777        3.22106746452928        1.06327675658563
C           -6.73009254208348        2.26939870197993        0.74558602773849
C           -5.61839938930480        2.14378342370831        1.57048234962895
C           -4.67444535807028        1.15984274916957        1.32339301854726
C           -4.80084363311473        0.31403409870675        0.23247204331071
N           -3.92693595063224       -0.77483903129676        0.10523440425138
C           -4.31542672507897       -2.12026678697029        0.02022764039604
C           -5.64226358758474       -2.60981790208352       -0.04880516016820
C           -5.86640468753618       -3.73644764222305       -0.87866367117254
C           -7.11144907500080       -4.03591047277287       -1.33768507504597
C           -8.24005311057276       -3.24300958296325       -0.97234191777054
C           -9.51022684454042       -3.44206612392435       -1.52777441542360
C          -10.58896556549432       -2.68786428524219       -1.12486204087318
C          -10.46265713401327       -1.73071048874786       -0.09744817229560
C          -11.55651269420455       -0.97122601802267        0.36533116020616
C          -11.40191617419033       -0.06560604356854        1.39961311856131
C          -10.17704991333464        0.10481697227144        2.01342903025265
C           -9.04830742785955       -0.62251891451737        1.57809613073667
C           -7.79228793566235       -0.51611707322164        2.20387139760683
C           -6.69574182606077       -1.18743278255462        1.71127281404175
C           -6.78598973684483       -1.98106383497463        0.55979964725253
C           -8.06853385827994       -2.24621073119925        0.02217709159748
C           -9.19082422420782       -1.53102499994659        0.49890669849838
N           -3.25144737353282       -2.91614215208807       -0.09097251929048
C           -2.17424145472224       -2.12571317011997       -0.03287738230173
C           -0.80723440318513       -2.51837177584805       -0.03535458317433
C           -0.43972155676236       -3.86836331549791       -0.06463668643642
C            0.88212405742453       -4.23405327434660       -0.02839734927691
C            1.87744961599167       -3.25022724007272        0.03578305060011
C            3.29694521011329       -3.62373811994733        0.07505271100093
C            3.73110124055210       -4.70460424711178        0.84225672890549
C            5.06666630871304       -5.04842591066649        0.89210280283112
C            6.00383166543096       -4.32663789651330        0.15607066325424
N            7.36071371669020       -4.67276602826813        0.20193952069187
C            7.88014579054708       -5.93929055643256        0.01795072636146
C            7.23045508511487       -7.12417686336169       -0.29990068782293
C            8.00074971862807       -8.26084767591511       -0.45781450198651
C            9.38635308503513       -8.22653993584081       -0.31426862417609
C           10.04112801874244       -7.04550811857619       -0.02312422941883
C            9.28841305210091       -5.89004860773176        0.14050590389624
C            9.62598612940574       -4.52121707984378        0.41947913951376
C           10.82508085909568       -3.86217977504113        0.65700261847185
C           10.79476287430740       -2.50658945038127        0.92111411601592
C            9.58745303320062       -1.81261312829299        0.96649726280381
C            8.38150068839390       -2.44698230768247        0.73509395722097
C            8.40719388369764       -3.80411169927312        0.44421816361631
C            5.57827481584335       -3.25447872527930       -0.62491863233028
C            4.24385392047141       -2.90525520494465       -0.65534382940392
C            1.51036618731620       -1.91187796209162        0.05882004724651
C            0.17480439189044       -1.50283907146630        0.01934585505331
C           -0.22079209982243       -0.10085664205201       -0.00084306406149
C            0.72759326935593        0.91918849964625       -0.04141127606567
C            0.38921866841391        2.26341579731446       -0.13039466993765
C            1.43239219149356        3.29046887006528       -0.15655956382108
C            1.31501938342334        4.41553503136384       -0.97493306278384
C            2.30444047354858        5.37595780996349       -1.00808003047147
C            3.43710355882005        5.24438610847236       -0.20672451520478
N            4.44183943184710        6.21908610658038       -0.23436776879979
C            5.79282740757357        5.98237604430962       -0.40093589156905
C            6.46078731655651        4.78506776685282       -0.61787634982444
C            7.83197573567536        4.83157997478257       -0.78579370894044
C            8.52869336609724        6.03756811703773       -0.74941395747547
C            7.86654530892800        7.23485726016732       -0.55807573559581
C            6.48871341832563        7.21348561098408       -0.38636713500942
C            5.50007397550586        8.23894114150790       -0.19359648945523
C            5.56703988330703        9.62104547298589       -0.07650569474036
C            4.39696394332036       10.32526719484646        0.13229207226896
C            3.17375484350673        9.66660185937781        0.23925571613432
C            3.08195888999724        8.29199150335104        0.12687271366636
C            4.25078291893607        7.58142686880777       -0.10910754242410
C            3.55954351372868        4.13090004685707        0.62234935402267
C            2.57359385748805        3.16704464296444        0.63912774846993
C           -0.96787345602607        2.60600217461708       -0.21382217278530
C           -1.93171245450796        1.63597275438395       -0.15185415450960
C           -1.59940268829297        0.27365334451664       -0.01460094419863
C           -2.55442295273160       -0.76551521693885        0.05923994399329
C           -5.86464901615153        0.48818915066914       -0.69819454272067
C           -5.96038697628936       -0.24924771891421       -1.89445699752102
C           -7.03418482413809       -0.09604550417556       -2.73108868624936
C           -8.05571343608847        0.80438327244292       -2.41218161225155
C           -7.96494625203009        1.57602860583636       -1.28333023583294
C           -6.86602876256733        1.45301309361561       -0.41393940507786
H           -5.51672337095047        2.78617581536250        2.43271456317433
H           -3.84821471109707        1.02528234978089        2.00687099183667
H           -5.00006831735568       -4.28748872320900       -1.21244582907170
H           -7.25875896677956       -4.85576580795085       -2.02490721028835
H           -9.63449795817863       -4.20197414707074       -2.28612845999294
H          -11.55752789252961       -2.83766141141858       -1.57952508128685
H          -12.52294639514560       -1.11097092982528       -0.09633220614515
H          -12.25243174422503        0.50809780043958        1.73920499344180
H          -10.06640875486072        0.80084161319710        2.83197552431616
H           -7.69720523412768        0.10417953059555        3.08349839953554
H           -5.74922904588439       -1.11501935235056        2.22682465460675
H           -1.22793681935212       -4.60406261754431       -0.11176593141464
H            1.15995901245906       -5.27643844235905       -0.06735600140551
H            3.01745733564186       -5.26002533904835        1.43231926155115
H            5.39527810359131       -5.86637243868702        1.51578199682702
H            6.15969186887554       -7.15834880711835       -0.43186511951379
H            7.51815300340522       -9.19609552540461       -0.70189333192691
H            9.95344180320619       -9.13686834188650       -0.44256345842807
H           11.11638212445789       -7.01659222236564        0.07151878653591
H           11.75972420951541       -4.40259058523554        0.63871982461408
H           11.71690960457138       -1.97523041189466        1.10569385408538
H            9.59381552318873       -0.75595744986178        1.19139039429609
H            7.45058475219116       -1.90358367096121        0.79160349627794
H            6.29708160819175       -2.71079714848425       -1.21956788931075
H            3.92508168561377       -2.08524507225188       -1.28157378678069
H            2.29940951289437       -1.18164263071419        0.13351230353566
H            1.77594196627830        0.67123605374324       -0.03891334717428
H            0.45464798662937        4.51970209440657       -1.61894852737028
H            2.21682414252008        6.22496468486928       -1.66961444225174
H            5.92859052544653        3.84728080797794       -0.66645268204878
H            8.37495830681404        3.91279529570786       -0.95312251427938
H            9.60062426451373        6.03274074294342       -0.88266420559435
H            8.40503382685549        8.17067875432481       -0.54720334600793
H            6.51665984847139       10.13076404092807       -0.14166394519324
H            4.42704043650801       11.40113232583974        0.22378423335643
H            2.27758974555693       10.24239559025451        0.41935292401088
H            2.13176213354205        7.79024146903038        0.23001350937383
H            4.42171112383716        4.03957939775981        1.26602018198531
H            2.67041259285513        2.32301520388164        1.30565198333379
H           -1.25753943868601        3.64205510831883       -0.30333291720999
H           -2.96875220265820        1.91973763411522       -0.22961341546503
H           -5.17180333086504       -0.93972105128013       -2.15540926358723
H           -7.09467776103050       -0.67392066212438       -3.64100530983557
H           -8.90963526187537        0.89958674129273       -3.06574285109038
H           -8.73639781537739        2.29389285194862       -1.04285051071665
