  128
       -204.74768162
 N         -8.7065155123        3.5987784778        1.5374534847
 C         -7.8681694861        2.9039600607        1.1740659741
 C         -6.8226588367        2.0553607265        0.7560334276
 C         -5.6719814868        1.9751124449        1.5160606576
 C         -4.6839595142        1.0491253035        1.1932056648
 C         -4.8109991342        0.2493493855        0.0758134315
 N         -3.9261532064       -0.8209372182       -0.1159580520
 C         -4.3096009062       -2.1589809564       -0.1388360732
 C         -5.6988344358       -2.5645811379       -0.3073944896
 C         -6.0049418750       -3.4037461104       -1.3783954873
 C         -7.3089812441       -3.5885475534       -1.7828648673
 C         -8.3496651356       -2.8866268582       -1.1678783396
 C         -9.6848169077       -2.9099566302       -1.6637787904
 C        -10.6621459164       -2.1758226756       -1.0821497565
 C        -10.4013578824       -1.3736372168        0.0675629051
 C        -11.3847363727       -0.5844234244        0.6667715442
 C        -11.0960364389        0.1775021818        1.7842230069
 C         -9.8301616825        0.1608611736        2.3407486200
 C         -8.8148181033       -0.6082876809        1.7714185328
 C         -7.5036095471       -0.6727149615        2.3262416927
 C         -6.5088068157       -1.3434048077        1.6994196092
 C         -6.7370176307       -2.0125003084        0.4616747700
 C         -8.0637774820       -2.1072899179       -0.0206461215
 C         -9.0939846758       -1.3718665678        0.6118401688
 N         -3.2820865894       -2.9603909844       -0.1364634723
 C         -2.1766711740       -2.1660907276       -0.0947380628
 C         -0.8145590759       -2.5674306378       -0.0548778993
 C         -0.4492007831       -3.9182760383       -0.0402096964
 C          0.8706270791       -4.2822217866        0.0101945606
 C          1.8686142259       -3.2979637591        0.0518822026
 C          3.2885395209       -3.6714900574        0.0938727822
 C          4.1903638763       -2.9635664290        0.8870072835
 C          5.5282276302       -3.2992366103        0.9145799562
 C          6.0020657812       -4.3501667664        0.1337584041
 N          7.3633590078       -4.6770930606        0.1424134389
 C          7.8937157492       -5.9380962453        0.3270517809
 C          7.2494973160       -7.1373663372        0.5957841573
 C          8.0300185127       -8.2645094161        0.7671730833
 C          9.4195826250       -8.2071714664        0.6834169382
 C         10.0674257664       -7.0126764373        0.4401430574
 C          9.3044980675       -5.8657714187        0.2641941111
 C          9.6319931556       -4.4886139608        0.0221164701
 C         10.8293094247       -3.8076903643       -0.1545714575
 C         10.7883481468       -2.4500614680       -0.4012527838
 C          9.5732202400       -1.7741447866       -0.4874804878
 C          8.3691141004       -2.4294446399       -0.3150079475
 C          8.4045856427       -3.7896798525       -0.0428384091
 C          5.1090235084       -5.0667440162       -0.6584495455
 C          3.7699692778       -4.7333906883       -0.6698824033
 C          1.5054641938       -1.9626918119        0.0395391221
 C          0.1686378094       -1.5521831473       -0.0175402886
 C         -0.2205272254       -0.1532156689       -0.0708536265
 C          0.7308527800        0.8715793421       -0.0748543292
 C          0.3908470933        2.2078604326       -0.1847093441
 C          1.4339099928        3.2405227429       -0.1622475390
 C          1.3802830823        4.3369635765       -1.0205027769
 C          2.3710291752        5.2974683361       -1.0065868104
 C          3.4356728625        5.1934576232       -0.1148711829
 N          4.4399208911        6.1673236323       -0.0924282721
 C          5.7995037580        5.9254206342       -0.1215423135
 C          6.4822682371        4.7221681865       -0.2294573886
 C          7.8630248479        4.7639352519       -0.2629738954
 C          8.5562561207        5.9706280738       -0.2009945254
 C          7.8821937190        7.1726484889       -0.1202503836
 C          6.4940783938        7.1562841543       -0.0845370284
 C          5.4955091924        8.1868572840       -0.0252125425
 C          5.5562939840        9.5723236843        0.0463537236
 C          4.3752750711       10.2836484796        0.1164465552
 C          3.1454201263        9.6295506671        0.1326224830
 C          3.0594241938        8.2522524278        0.0624011107
 C          4.2420357771        7.5329363001       -0.0350520820
 C          3.4908452294        4.1079121310        0.7558733821
 C          2.5062640351        3.1424784195        0.7231946178
 C         -0.9586816207        2.5501700318       -0.3303722932
 C         -1.9232707248        1.5766800552       -0.3081912445
 C         -1.5893911996        0.2237877648       -0.1456477147
 C         -2.5488023546       -0.8233463016       -0.0879615516
 C         -5.9049124878        0.4234851434       -0.8145887237
 C         -5.9951512948       -0.2574063264       -2.0459876217
 C         -7.1255768063       -0.1659664072       -2.8089106367
 C         -8.2090270680        0.6151881789       -2.3819007847
 C         -8.1215360216        1.3459251520       -1.2296564043
 C         -6.9621179116        1.2870887507       -0.4320303634
 H         -5.5642011138        2.5899902382        2.3971632740
 H         -3.8307234963        0.9266450552        1.8440199105
 H         -5.1915155402       -3.8717973200       -1.9123520559
 H         -7.5285565276       -4.2324761904       -2.6219390278
 H         -9.8940992542       -3.5191997407       -2.5316351220
 H        -11.6681229679       -2.1851864126       -1.4772080640
 H        -12.3790831903       -0.5707488085        0.2440516946
 H        -11.8665126938        0.7886346200        2.2302866146
 H         -9.6158402227        0.7528425117        3.2185371910
 H         -7.3226264247       -0.1685060134        3.2652352880
 H         -5.5250159259       -1.4077374720        2.1417194499
 H         -1.2378004856       -4.6541678329       -0.0637153388
 H          1.1484326878       -5.3251785837        0.0405065971
 H          3.8326499122       -2.1584329047        1.5119318140
 H          6.2133729391       -2.7600698654        1.5517494461
 H          6.1743866733       -7.1885654702        0.6804118492
 H          7.5520339273       -9.2106006738        0.9743829124
 H          9.9939277031       -9.1110284659        0.8212095859
 H         11.1448208955       -6.9647585636        0.3917841962
 H         11.7700552972       -4.3348749808       -0.1046610636
 H         11.7079754756       -1.9014968927       -0.5402674775
 H          9.5718252626       -0.7147926878       -0.6983333098
 H          7.4320469698       -1.9003442863       -0.4025823866
 H          5.4759735890       -5.8709863542       -1.2784728368
 H          3.0914445852       -5.2825099695       -1.3057568113
 H          2.2968629356       -1.2310902326        0.0465403014
 H          1.7787950663        0.6280217831       -0.0184290947
 H          0.5694976089        4.4202068754       -1.7291476343
 H          2.3366682928        6.1252180139       -1.6989298640
 H          5.9547184646        3.7827385056       -0.2982643560
 H          8.4167483193        3.8401042137       -0.3435899205
 H          9.6355693463        5.9608337848       -0.2278533573
 H          8.4181942318        8.1091524883       -0.0902295312
 H          6.5102230889       10.0775607001        0.0518210148
 H          4.3999258039       11.3617664525        0.1700210919
 H          2.2384611136       10.2115188991        0.2053961253
 H          2.1019768481        7.7544744385        0.0953700739
 H          4.3000817311        4.0376604479        1.4671411304
 H          2.5506796653        2.3145096936        1.4154678332
 H         -1.2415107131        3.5866828752       -0.4377491873
 H         -2.9578612443        1.8565582676       -0.4313009664
 H         -5.1571409746       -0.8486519459       -2.3824453681
 H         -7.1897850729       -0.6977484078       -3.7458851467
 H         -9.1066376208        0.6513594386       -2.9800100282
 H         -8.9377077158        1.9769172762       -0.9100605496
