89
 energy: -139.217439669729 gnorm: 0.000042664621 xtb: 6.7.1 (edcfbbe)
C            9.57637732039148        4.43680043550068        0.94948352568040
C            9.99849815991749        3.14317319263808        1.21287202179743
C            9.16231761847097        2.07483071635089        0.95041568691596
C            7.88648163506215        2.28772187639309        0.43120555260945
C            7.01318297424750        1.13557201612571        0.17010926093177
C            5.62399928403006        1.21674367465186        0.26332405356863
C            4.89770259591876        0.05359938777088        0.00942198376470
C            3.43335102996230        0.00184542744884        0.09671618899873
C            2.64316513318719        1.12924976190629       -0.12117713707197
C            1.26881712394320        1.05447103137580       -0.01929364783498
C            0.65316897753454       -0.15361679730088        0.30134931346850
N           -0.74021599791988       -0.22612177597576        0.42294263579733
C           -1.42576456348358       -0.73704304433724        1.50738970010498
C           -0.92424118168895       -1.25409594771713        2.69342775064656
C           -1.82922368653489       -1.67805753771590        3.64729086672101
C           -3.20175889939816       -1.58239820774990        3.43155901964799
C           -3.70487386725776       -1.04552486028796        2.26302092088335
C           -2.81716134503317       -0.61097762693825        1.28666752531405
C           -2.97230112401732        0.00334211352084       -0.00591027717819
C           -4.04200000536603        0.37985342874568       -0.80413707715545
C           -3.78893598266188        0.94664765903355       -2.06172514042794
C           -2.49393679153859        1.12879851997969       -2.54011197114913
C           -1.41565055695940        0.76406687282488       -1.75925288572419
C           -1.65929123788970        0.22617917345094       -0.50129024808563
C           -5.05760101367016        1.25715228967892       -2.69828202586331
C           -5.35079833941477        1.82434171267719       -3.92851356661020
C           -6.67974846014866        2.00776409807190       -4.27568941780996
C           -7.69972364664657        1.63237919011179       -3.41392912689285
C           -7.41309671330938        1.06259561961743       -2.18010424135729
C           -6.09261769126584        0.88003278081127       -1.83339650838034
C           -5.52695765226108        0.28814984149128       -0.55759071062112
C           -6.07975297832971       -1.09775517408878       -0.32656827874890
C           -5.88232177133571       -2.23739511649144       -1.07469184632916
C           -6.53367101649283       -3.40237898547863       -0.69014726355082
C           -7.37271978679897       -3.41660843337934        0.41406866582883
C           -7.57619862577903       -2.27133984993865        1.16781527216668
C           -6.92277467567675       -1.10786746990054        0.79559520859492
C           -6.90098084769595        0.21640082563615        1.40099950502505
C           -7.52549156235373        0.71331347732164        2.53338607136921
C           -7.28257254934197        2.02708012713623        2.90232537169375
C           -6.43384409972760        2.83094199394664        2.15601913956094
C           -5.81021775441068        2.34184191661219        1.01537609470244
C           -6.04590531104814        1.03542734667234        0.64752517618483
C            1.43649275416956       -1.28810745087267        0.50559191760530
C            2.80915348177506       -1.20776047340548        0.40163951633432
N            5.51798581747471       -1.08348682111671       -0.30328089917937
C            6.84505137191185       -1.07425071779928       -0.36890173996963
C            7.51516270311103       -2.33152053185780       -0.71668537826445
C            8.90591816485344       -2.38989225008672       -0.79069435426338
C            9.53531157249882       -3.57636886924352       -1.11587033172948
C            8.78620865921244       -4.71451618288832       -1.37215476243984
C            7.40244045935824       -4.66223644838018       -1.30432420704304
C            6.76779399200214       -3.47851935116085       -0.97936627415175
N            7.61177798953764       -0.01216851262631       -0.14252862118369
C            7.47176620079396        3.59072494729765        0.16391804865093
C            8.31493812373539        4.65646813626351        0.42006056391283
H           10.23039890826689        5.27200061167999        1.15234213927921
H           10.98255280805363        2.96784205280360        1.62229767003157
H            9.47678858910810        1.06182458213347        1.15027556881485
H            5.13816744060432        2.12851511953758        0.56703717688477
H            3.10038901160568        2.07099897945309       -0.38485037997436
H            0.66437861043585        1.93587528355256       -0.17262977314874
H            0.13887022678535       -1.31431262129353        2.87124243091022
H           -1.46465125614351       -2.08787264535414        4.57791874577959
H           -3.88319713979218       -1.92550578802564        4.19611762281952
H           -4.76771126460075       -0.96208128110794        2.11522889990939
H           -2.33430046121399        1.55056283340462       -3.52083372880042
H           -0.40620369183461        0.88224605176419       -2.12249755739421
H           -4.56124376465462        2.11909994728703       -4.60399480887375
H           -6.92592682846325        2.44922509322415       -5.23092119695101
H           -8.72891953825920        1.78469961168416       -3.70489720292439
H           -8.20812456991018        0.77010246724654       -1.50897306707396
H           -5.23341445849990       -2.22630575187347       -1.93870982957856
H           -6.38621374647385       -4.30825447415403       -1.26011716764860
H           -7.87203866891259       -4.33389632003242        0.69155797072924
H           -8.22799157706704       -2.28793292528399        2.02897856257756
H           -8.18530178230148        0.09038324170138        3.11930851283784
H           -7.75883509429984        2.43041388563382        3.78445816511482
H           -6.25650453991671        3.85103089279644        2.46482056262574
H           -5.15288100200204        2.97050283455148        0.43192110425676
H            0.96052285318201       -2.23041718870053        0.73155624848292
H            3.42362277223456       -2.08104667717065        0.55580738138500
H            9.47436576607982       -1.49440232422791       -0.59290791066881
H           10.61349109857269       -3.61522135613934       -1.17129781787609
H            9.28025443856401       -5.64118507233765       -1.62568671867120
H            6.81784589752564       -5.54785568592606       -1.50694429818652
H            5.69173559382470       -3.42053295771223       -0.92705566122286
H            6.49819404948894        3.77115898171663       -0.26797702089741
H            7.98716791238091        5.66283844485622        0.20352875799601
