89
 energy: -139.137186287396 gnorm: 0.000063006780 xtb: 6.7.1 (edcfbbe)
C            9.55984148400099        4.49356130099214        1.41121561103850
C            8.18930689326332        4.70060866866179        1.34700580140025
C            7.33747640963799        3.67043121462842        1.00635893843586
C            7.83746466101266        2.39278070078844        0.71961744439941
C            6.98843744323140        1.27407962293512        0.35743695178642
C            5.60781458627921        1.28505683992961        0.45542273356083
C            4.89021357701958        0.14440300313846        0.05665302526135
C            3.46629632765160        0.02751307175850        0.09970580507528
C            2.62266882847604        0.98895769230627        0.69817193502138
C            1.26094189783808        0.82672439283664        0.71668274812800
C            0.66647812201868       -0.30008131183308        0.13541000442847
N           -0.72411963812034       -0.46097305631671        0.16154259894794
C           -1.39250488414515       -1.58999126333023        0.58905885470848
C           -0.87163383187678       -2.77412283836052        1.09394306908048
C           -1.76251077804011       -3.76117305529309        1.47305969912067
C           -3.13707931796331       -3.57054462693181        1.36337878590638
C           -3.66131241697793       -2.38046063609745        0.88825157121852
C           -2.78960446205810       -1.37392028997431        0.50152280222492
C           -2.96209179329002       -0.03460615026333       -0.00354256534823
C           -4.03667171442002        0.77855166981612       -0.31019511070423
C           -3.79428625625292        2.07133909897529       -0.81758241720514
C           -2.50153251755123        2.54523461994083       -1.04394836270309
C           -1.41770024006999        1.74995105160277       -0.74014879134607
C           -1.64904187681567        0.48442854776529       -0.20239058341087
C           -5.06412749503020        2.72788511752972       -1.04196315253886
C           -5.36721952895056        3.99760120463357       -1.51630213707130
C           -6.69747865068553        4.36668355109343       -1.61722790562726
C           -7.71107062299936        3.48919448056344       -1.25457088889188
C           -7.41626503206343        2.21669274965486       -0.78111889359166
C           -6.09391520450194        1.84647623476694       -0.67848904539948
C           -5.51870893493847        0.53107122615528       -0.19592380075929
C           -6.06067465950654       -0.61523448894255       -1.01818742952550
C           -5.86884489856707       -0.87644385584356       -2.35690748748676
C           -6.50935705665603       -1.97612367920760       -2.91355948488900
C           -7.33041612517949       -2.78610424777648       -2.14313350723890
C           -7.52770122940469       -2.52458591852871       -0.79630232816246
C           -6.88704011778710       -1.43322735030158       -0.23234273505224
C           -6.86845623316447       -0.93132413328170        1.13463969603299
C           -7.48530771125962       -1.39377075811017        2.28576056835237
C           -7.25185926142392       -0.72534965947530        3.47736437791033
C           -6.41975720073247        0.38346166388202        3.52120593832919
C           -5.80397635544966        0.85763413283270        2.36993213477688
C           -6.03097519205110        0.19388629452684        1.18450253379633
C            1.48641900546802       -1.26596023865103       -0.46325535486315
C            2.84628607835797       -1.10694254416807       -0.47565178426987
N            5.59747165717071       -0.93258034926805       -0.40209889843562
C            6.90717695740026       -0.91175596537181       -0.45078780388183
C            7.61809612672278       -2.10615035608539       -0.91405715571563
C            8.99567579008679       -2.06956020968520       -1.11700748700691
C            9.66664547186008       -3.19906692549476       -1.54575817393015
C            8.97052530902655       -4.37552886238640       -1.77619559209411
C            7.59917758034478       -4.41912700506817       -1.57664866875889
C            6.92497260509060       -3.29165162596395       -1.14841619258843
N            7.61317795334570        0.14766951547305       -0.09733305828555
C            9.22666224654309        2.20192166133344        0.78339834378486
C           10.07126931987733        3.23583153235722        1.12418311244658
H           10.22101357015211        5.30462404950298        1.67828839626607
H            7.78274692859786        5.67890127296394        1.56252279745258
H            6.27745339927860        3.86693307215335        0.94947420269990
H            5.08897987669049        2.15102272538166        0.82915232553954
H            3.04647145245910        1.85861748037063        1.17568039767050
H            0.63630352182173        1.55638863552255        1.21141642381719
H            0.19313026077477       -2.91462991242529        1.19767004595530
H           -1.38410341701870       -4.69326173871235        1.86533903666590
H           -3.80692819593741       -4.36207316545260        1.66436152177222
H           -4.72655572327708       -2.24158602596036        0.82524590492197
H           -2.35284578203159        3.52985536964071       -1.45919109459826
H           -0.41051160691846        2.09023505573098       -0.92374145035606
H           -4.58266692538343        4.68342226593177       -1.79870967344086
H           -6.95266559320112        5.35082116309619       -1.98269829603979
H           -8.74188631453143        3.79969541156356       -1.34127979998638
H           -8.20634706617444        1.53577457249231       -0.49956673778826
H           -5.23411090554516       -0.24302452613603       -2.95972150377917
H           -6.36840897783422       -2.20114323280730       -3.96065207601458
H           -7.82145220938544       -3.63325224889458       -2.59985753958293
H           -8.16651573563046       -3.15959617084017       -0.20051040503373
H           -8.13222214064205       -2.25806098739969        2.25741516526461
H           -7.72275210525092       -1.07330788638944        4.38541885592672
H           -6.24986501158075        0.88633994105309        4.46210224552527
H           -5.16077850389919        1.72514728122273        2.40495186293217
H            1.03333354950248       -2.12203181991352       -0.94160317683245
H            3.48030459135377       -1.84118710409120       -0.94821806482948
H            9.52228451348212       -1.14465805002256       -0.93604422911604
H           10.73511107462766       -3.16373670703964       -1.70132864308184
H            9.49644821620585       -5.25806896552065       -2.10969438828247
H            7.05621880894021       -5.33594056673067       -1.75465370626755
H            5.85829118853886       -3.31067900473177       -0.98360745391829
H            9.61806419806178        1.21982072191198        0.56464790027810
H           11.13761116673670        3.06400815320654        1.16857048766483
