  64
       -105.18814361
 O          6.1961418974       -1.5903016043       -1.5740763462
 S          5.7211118122       -1.2394369141       -0.2507186078
 O          6.2192211665       -2.0727100670        0.8244049508
 C          5.9304808415        0.4975698641        0.0903973453
 C          7.0951790034        1.2037296472        0.1989544533
 C          7.0374273496        2.5705229857        0.4727819436
 C          5.7894784137        3.2004519242        0.6226381504
 C          4.6183528414        2.5029628381        0.5094398295
 C          4.6463926981        1.1097415488        0.2289183109
 C          3.5633844203        0.2382404212        0.0483759357
 C          2.1815845797        0.5230027326        0.1281161941
 C          1.2657386423       -0.4813907979       -0.0301781232
 N         -0.1250689449       -0.2195507388        0.0183766505
 C         -0.8575787380       -0.8198794345        1.0215666205
 C         -0.1992094250       -1.5154566146        2.0491175942
 C         -0.9171850363       -2.1443275186        3.0414302862
 C         -2.3041212725       -2.0778457086        3.0515869002
 C         -2.9591746230       -1.3541837007        2.0722926461
 C         -2.2563089253       -0.7173989016        1.0602159123
 C         -3.0109301265        0.0710670331        0.0297916649
 C         -3.9784030725       -0.8322008850       -0.7231076982
 C         -3.6794678030       -1.9111072159       -1.5235619291
 C         -4.7284877744       -2.6029467768       -2.1161714067
 C         -6.0427140424       -2.2143907640       -1.9053389883
 C         -6.3448616168       -1.1273515907       -1.1007783583
 C         -5.3039721545       -0.4320609214       -0.5067147444
 C         -5.3016586832        0.7285723838        0.3700659984
 C         -6.3397097487        1.4942707349        0.8759128280
 C         -6.0330756777        2.5652327294        1.7002133929
 C         -4.7175753102        2.8686356067        2.0166332908
 C         -3.6715247314        2.1045637528        1.5143683348
 C         -3.9740897894        1.0412357042        0.6944032799
 C         -2.1098561556        0.7781154231       -0.9412702553
 C         -2.6809976726        1.6026531184       -1.9005807567
 C         -1.9087376109        2.2237028955       -2.8627134461
 C         -0.5388693502        1.9941158934       -2.8898582902
 C          0.0485327433        1.1824967183       -1.9464073032
 C         -0.7195264109        0.5812978240       -0.9375263815
 C          1.6646955700       -1.8321153346       -0.2853202685
 C          3.0213262646       -2.1252492559       -0.3869680513
 C          3.9420710069       -1.1324980642       -0.2179420993
 H          8.0418184728        0.6990372404        0.0824553572
 H          7.9454775054        3.1428726881        0.5724689759
 H          5.7637892158        4.2604560294        0.8329573002
 H          3.6682547480        3.0024412927        0.6249906263
 H          1.8493366396        1.5311924862        0.3233510041
 H          0.8778657068       -1.5469319309        2.0633393597
 H         -0.3929795461       -2.6794348616        3.8179642712
 H         -2.8679944823       -2.5680271482        3.8297743597
 H         -4.0360820006       -1.2755856211        2.0865157175
 H         -2.6554149948       -2.2128415665       -1.6906751974
 H         -4.5157929400       -3.4512858828       -2.7488261482
 H         -6.8417092551       -2.7670431243       -2.3764995595
 H         -7.3697484141       -0.8286469855       -0.9400556811
 H         -7.3653908897        1.2628597975        0.6313512704
 H         -6.8298115657        3.1735683418        2.1018804458
 H         -4.5020272732        3.7075868607        2.6608447000
 H         -2.6464905339        2.3399918196        1.7620204889
 H         -3.7508482133        1.7490361392       -1.8879551177
 H         -2.3695643073        2.8664294902       -3.5960921970
 H          0.0731924515        2.4496720861       -3.6527981674
 H          1.1096974659        0.9978765792       -1.9861068248
 H          0.9121374177       -2.5851541479       -0.4482878767
 H          3.3488652214       -3.1338603644       -0.5879306286
