55
 energy: -91.139126375624 gnorm: 0.000051221484 xtb: 6.7.1 (edcfbbe)
C           -5.92637441249058        2.62410483378113        2.01233273125053
C           -4.57911913139503        2.92296540287732        1.97307515720241
C           -3.69823694279264        2.10176650883438        1.28550810287820
C           -4.15333475432280        0.97513473732153        0.61026182976832
C           -5.51674858020197        0.66174215085150        0.68790978086265
C           -6.39169118652613        1.48280085760674        1.37552038114915
O           -6.04674740412651       -0.46652517728749        0.10873973588167
C           -5.18006331243059       -1.30621378659220       -0.55064169445466
C           -5.72799051529523       -2.44242466513995       -1.11790823312583
C           -4.92986512847205       -3.32439336870725       -1.83113760545567
C           -3.58567492348211       -3.04989963764078       -1.98429578368867
C           -3.03167236409525       -1.91375032044184       -1.41412902322410
C           -3.81048914439895       -1.03375618839052       -0.67227742632123
N           -3.29028749697741        0.12945327313770       -0.09325649921586
C           -1.93349301078989        0.47684156389157       -0.25013321400287
C           -1.61076182737054        1.67735036593613       -0.93006826968079
C           -0.31301302693137        2.04403593128515       -1.12619214621539
C            0.73426607574787        1.22353342720168       -0.64966336852946
N            2.00966086345178        1.58163815370538       -0.84698864440892
C            2.95864302093447        0.78438918539941       -0.38661269079181
C            4.34240662346360        1.14791815165198       -0.59374118964154
C            4.64648832962097        2.33296759587732       -1.27145848884706
C            5.95304436770892        2.70473464179995       -1.48749172254733
C            6.97955465701358        1.88889778247059       -1.02433020351650
C            6.69400518169657        0.71876462542512       -0.35441157650772
C            5.37458685346040        0.31372655114684       -0.11829105004331
C            5.04724415372495       -0.91717775249964        0.58931201962495
C            6.02844693904529       -1.78470512891256        1.08463690240998
C            5.69521138387026       -2.94352262458304        1.75218621680278
C            4.36183278463143       -3.28293996042583        1.95361340033487
C            3.37512148506926       -2.45114968721196        1.47747989133608
C            3.69922683220253       -1.27285566350259        0.79753321909555
C            2.63715380971763       -0.42371675433821        0.30512973494083
N            1.38267609050192       -0.78786518293411        0.50165599509919
C            0.41228762707571        0.01397329631836        0.03489670858538
C           -0.93751892648566       -0.33757565887060        0.22959064116342
H           -6.61674093415525        3.26080075183707        2.54263695526303
H           -4.19772804991107        3.79517243239277        2.48138573790585
H           -2.64537143760933        2.33664820050712        1.27954633637867
H           -7.43436744886615        1.20789023902730        1.40336786413288
H           -6.78572431109993       -2.61400847775003       -0.99393182916181
H           -5.36534203168193       -4.20912065145018       -2.26792528816653
H           -2.95279312507701       -3.71505051642614       -2.55145783993528
H           -1.98288134634484       -1.70666512801191       -1.55640821821887
H           -2.41736951472408        2.28979655410415       -1.30541584541318
H           -0.05325440791663        2.95026014093738       -1.65105588690245
H            3.82462830077540        2.94079318915054       -1.61656716850742
H            6.18061641749450        3.62104068531216       -2.01122649224993
H            8.00868545327301        2.17234352843991       -1.18927522903942
H            7.51626372741156        0.11295403713803       -0.01007516910610
H            7.07263773165092       -1.55514172374944        0.94839299713116
H            6.47735561989667       -3.59076049342836        2.12113886685807
H            4.10458511804428       -4.19115139553312        2.47767075273905
H            2.33023072328751       -2.68270815761452        1.61391470910478
H           -1.16182498086283       -1.25131789046984        0.75844174573852
