  55
        -91.10160563
 C         -5.9012029070        2.6468935025        1.9908772024
 C         -4.5509412919        2.9296593783        1.9573910377
 C         -3.6771557874        2.0977773447        1.2740227566
 C         -4.1436087397        0.9765930919        0.5985553519
 C         -5.5100554413        0.6762201897        0.6737504860
 C         -6.3771290800        1.5090908375        1.3561660459
 O         -6.0473905513       -0.4477452200        0.0994293795
 C         -5.1868925077       -1.3030327667       -0.5429554824
 C         -5.7407226782       -2.4445884663       -1.0924056194
 C         -4.9477988600       -3.3419265627       -1.7915770939
 C         -3.6024223499       -3.0782797302       -1.9487404270
 C         -3.0410194391       -1.9377214117       -1.3953234101
 C         -3.8150783698       -1.0428726049       -0.6672641497
 N         -3.2885643962        0.1230875151       -0.1026649301
 C         -1.9322547952        0.4657555012       -0.2651116101
 C         -1.6110877607        1.6680073857       -0.9425125835
 C         -0.3143229183        2.0373026156       -1.1368628683
 C          0.7338443079        1.2175627505       -0.6613064291
 N          2.0074326886        1.5812922364       -0.8511776754
 C          2.9555821062        0.7848471986       -0.3904990113
 C          4.3393692053        1.1569066691       -0.5822848260
 C          4.6413534481        2.3501087314       -1.2448906399
 C          5.9471303168        2.7335515833       -1.4421419878
 C          6.9744285737        1.9216634885       -0.9747248626
 C          6.6903756179        0.7428990652       -0.3202918482
 C          5.3718368086        0.3250006703       -0.1050355024
 C          5.0456110183       -0.9163055342        0.5835944857
 C          6.0264209307       -1.7873787944        1.0726431286
 C          5.6925945704       -2.9553826911        1.7228393210
 C          4.3592359876       -3.3010130077        1.9119641281
 C          3.3731051863       -2.4663595269        1.4409595324
 C          3.6983032070       -1.2795065274        0.7782018841
 C          2.6353018257       -0.4291509756        0.2897715079
 N          1.3825896021       -0.7987059777        0.4802206279
 C          0.4129711190        0.0035915821        0.0168905377
 C         -0.9362689006       -0.3502063956        0.2100255439
 H         -6.5857901963        3.2933778635        2.5165956831
 H         -4.1615797633        3.7975874434        2.4669057407
 H         -2.6217719836        2.3202284392        1.2718973171
 H         -7.4225951196        1.2469028403        1.3819326214
 H         -6.7994026211       -2.6076977360       -0.9680417387
 H         -5.3883290374       -4.2304504585       -2.2152099335
 H         -2.9741790258       -3.7561840464       -2.5057533152
 H         -1.9914167319       -1.7394870444       -1.5417229190
 H         -2.4199805185        2.2795291058       -1.3149220174
 H         -0.0554745567        2.9456697966       -1.6580200962
 H          3.8184353211        2.9542963746       -1.5930718545
 H          6.1752653785        3.6557848257       -1.9551207171
 H          8.0033065335        2.2148004822       -1.1243655372
 H          7.5137320189        0.1404911080        0.0285674055
 H          7.0712763614       -1.5542608459        0.9446168303
 H          6.4743792224       -3.6057517258        2.0872947969
 H          4.1032354778       -4.2166568304        2.4235534368
 H          2.3280298747       -2.7012607149        1.5675161107
 H         -1.1603278252       -1.2644830107        0.7373449209
