55
 energy: -91.091188789502 gnorm: 0.000069354753 xtb: 6.7.1 (edcfbbe)
C           -4.97978015681419        3.19701984794965       -2.00733372555730
C           -3.65226881132773        2.87244201799678       -2.22956073093012
C           -3.09036223247075        1.76103775610975       -1.62627455568898
C           -3.84705029983739        0.95437103406091       -0.77936224884247
C           -5.20014277433599        1.27933472764062       -0.58027288082961
C           -5.75472338008084        2.39413820484012       -1.18614623638546
O           -6.02545022413794        0.51596284313897        0.20123064367349
C           -5.48840294303152       -0.58748640821285        0.80830599803639
C           -6.33145668606716       -1.34797817088096        1.60100266609073
C           -5.84520478744411       -2.46470807058793        2.26126922548982
C           -4.50956593311224       -2.80826803306574        2.13713308099722
C           -3.66132971816828       -2.05420963559851        1.34558604805746
C           -4.13683464317313       -0.94179867855565        0.65491598655732
N           -3.31718472756077       -0.16541578970740       -0.15273140795346
C           -1.95449969414164       -0.51696869723543       -0.34201246207182
C           -1.62918344958740       -1.66575502635840       -1.05487511783500
C           -0.30358730570017       -2.01416008006493       -1.24156720537425
C            0.72782340322321       -1.22232665635201       -0.73293790586265
N            2.01226706188831       -1.53168568465418       -0.90280216686611
C            2.98357421344096       -0.76471528227782       -0.41328113248657
C            4.35754932855548       -1.10480311641623       -0.61532045360630
C            4.67556930608602       -2.26870486822090       -1.33580335492036
C            5.98044750814249       -2.62854414196954       -1.55130687168372
C            7.00744571592463       -1.82818352513903       -1.04847375238896
C            6.71563980437014       -0.68580431003519       -0.34208694007132
C            5.39189046259513       -0.28752172884752       -0.10040201283366
C            5.05197857638476        0.90523049407663        0.64065781045948
C            6.01626327523166        1.76715352052634        1.18552755017354
C            5.66150024877789        2.89588709097681        1.88495644823898
C            4.31612736234598        3.21427250946498        2.07576192529587
C            3.34739346406506        2.39403377228242        1.55845264441052
C            3.69083432952387        1.23734221228013        0.83833683786032
C            2.64867587015240        0.41053685638863        0.31249432359304
N            1.37083360078349        0.73492602771874        0.48776935156597
C            0.38738403190311       -0.02498589645233        0.00165407643058
C           -0.95498084531943        0.29488187224181        0.18658400179938
H           -5.41668279639906        4.06515441919900       -2.47446714905537
H           -3.04444411715277        3.48362957089491       -2.87843177646139
H           -2.05790286532157        1.51012563258878       -1.80997583816999
H           -6.79507900306542        2.61120383119104       -1.00332262574575
H           -7.36264767886266       -1.04481114763287        1.68862305598905
H           -6.50746485336381       -3.05430744711367        2.87494075687271
H           -4.11857610402403       -3.66758979199612        2.65931276466141
H           -2.62008861097599       -2.32155441442063        1.26030789676854
H           -2.41473553356642       -2.28253563903102       -1.46433381481556
H           -0.03950002553114       -2.90235015648472       -1.79363783555206
H            3.85877706185995       -2.86597875097397       -1.71231513632742
H            6.21497684219592       -3.52511633466702       -2.10596707658581
H            8.03722798341336       -2.10784754047852       -1.21644656588881
H            7.53263872545018       -0.08990618634395        0.03226426844883
H            7.06455047811261        1.54940335048473        1.05774634694578
H            6.42829935940821        3.53941824325310        2.29094587177706
H            4.04276351085042        4.10185266532781        2.62705942831765
H            2.29806303358447        2.61187117446292        1.68908231294482
H           -1.20567720180039        1.17988569757544        0.75054503727205
