116
 energy: -173.044368234726 gnorm: 0.000053124353 xtb: 6.7.1 (edcfbbe)
C            9.42295338870407        3.50749617216558        0.81963744581047
C            8.82786480505566        2.21436770569040        1.39424104480356
C            9.20804159985675        2.08043080310264        2.87560852089564
C            9.43883258380284        1.03075332210525        0.63854696701961
C            7.31229886529758        2.27123507523447        1.27331454915277
C            6.61119721042817        3.29181738174192        1.92118732527749
C            5.24265314682996        3.39056862846958        1.81378488687697
C            4.52625287347015        2.45925764126220        1.06489846989674
C            5.18160141878386        1.39224929577124        0.42637123848175
C            6.57915596954783        1.35459123452257        0.54397357610184
B            4.29948859072185        0.38937404193070       -0.35174027710838
C            4.58571045059823       -0.97293149640740       -1.02401838721475
C            5.77061919803428       -1.71697497135446       -0.92294441782102
C            5.97600866061131       -2.92294374456775       -1.56602628290451
C            7.27060437562100       -3.71430130177675       -1.45234689321027
C            7.87560309224027       -3.88830830514894       -2.85252577084442
C            8.31254146111437       -3.02277376784721       -0.56829441969737
C            6.96384639283795       -5.08996393469037       -0.84400274523415
C            4.93462822229588       -3.42164756639543       -2.35294933977669
C            3.74096934514720       -2.74479954352589       -2.46094558297911
C            3.55438390297495       -1.53521685231571       -1.79543490225410
O            2.31395332144998       -0.98369187436899       -1.95661502576263
C            1.92838900257576        0.09499538560519       -1.24097026808798
C            0.58762132670519        0.44487168782972       -1.29586406853215
C            0.13295456789204        1.49961711228070       -0.51226951590267
N           -1.24530035877900        1.76357833128268       -0.45736739333260
C           -1.82650156747068        2.94845314466263       -0.83413820562070
C           -1.21992833123366        4.11643889346276       -1.26607543504394
C           -2.03715859185323        5.19096532185019       -1.56907920943735
C           -3.42483619360680        5.09218884566102       -1.43173845425332
C           -4.03812085893178        3.92496787854206       -1.02773166381833
C           -3.24343435644298        2.80987947440047       -0.74195895752368
C           -3.49130104760675        1.47424654002900       -0.31710632023302
C           -4.69970025172700        0.75573974888299       -0.09133714883864
C           -6.00742193487038        1.35427381971161       -0.33057683972913
C           -6.34589220296860        1.85094415102404       -1.59200379369138
C           -7.59909178272246        2.38112858711827       -1.82344795106428
C           -8.53262530437287        2.44338788955631       -0.80048538789094
C           -8.19839719034274        1.97739191252163        0.46206803111850
C           -6.95157802841922        1.43625263381387        0.69637713004509
C           -4.53146250245760       -0.55812535115586        0.39028894348415
C           -3.27271304940553       -1.11546406242499        0.72011800104217
C           -2.06312183494670       -0.40918708876504        0.46699356428806
C           -0.75962661539780       -0.99556625462065        0.78109282894125
C           -0.34107113785030       -2.16879517761409        0.15125773025744
C            0.91247852620635       -2.69155825686840        0.40290714629578
C            1.76265241305783       -2.06554912567525        1.29994589907308
C            1.34105656793064       -0.92139168470899        1.95960319204951
C            0.09242126453253       -0.39008670996857        1.70571293964654
C           -2.22690810304330        0.87064984916187       -0.09603553073352
C           -3.52105532046620       -2.39722270999486        1.28778956845235
C           -2.72717673352045       -3.39328106711671        1.86553401004757
C           -3.33233226435149       -4.54991117266237        2.30892993050501
C           -4.70881008479431       -4.75582626865259        2.18786632275295
C           -5.52495136893884       -3.78005422297222        1.64157704008142
C           -4.92886951204474       -2.60335571357043        1.22139296437580
N           -5.51037145638923       -1.48532897019498        0.66456604471052
C           -6.86687504474870       -1.42302981848480        0.30204202584123
C           -7.22055755658151       -1.23561923693149       -1.03024133620900
C           -8.55385396309714       -1.17427915070944       -1.38436164739855
C           -9.53898004090677       -1.31529326031746       -0.42044993012459
C           -9.18700911439546       -1.52681404773420        0.90148437735991
C           -7.85468040672782       -1.58311913511751        1.26715445611242
C            1.01333681611865        2.26852253526324        0.23982484910602
C            2.36001544877457        1.92817117823797        0.25323901311129
C            2.84149474871131        0.82003756726413       -0.45954681277794
O            3.17800231554209        2.68377863669361        1.01914616540635
H            9.06876236979413        4.38068893860815        1.36045342637448
H            9.14219338060556        3.61752996824192       -0.22584474021512
H           10.50886922445763        3.48333003256177        0.88530683755179
H            8.85789806964105        2.93084979367610        3.45384020413461
H           10.28930223087782        2.01948292076088        2.98157976386816
H            8.76829009500087        1.17829896429140        3.29599768729229
H           10.52012340623453        1.04186498278639        0.76182771941011
H            9.22248379718023        1.09158003596318       -0.42558853117819
H            9.06743041742463        0.08505475315682        1.02654021334947
H            7.13670323683218        4.02952034929293        2.50822529288497
H            4.70274056000465        4.19042315972280        2.29770470968784
H            7.08945237469913        0.57118221789144        0.01267485987951
H            6.54264768911487       -1.31647367260370       -0.29043966145034
H            8.81379385739092       -4.43610380775589       -2.79068636493898
H            8.07196705669912       -2.91609673017589       -3.29992272926659
H            7.20560036172775       -4.43583053877646       -3.50938959606799
H            7.94489244424282       -2.89941544411249        0.44784799509024
H            9.21366514479557       -3.63170497832219       -0.52688362158706
H            8.58418542580158       -2.05008487440543       -0.97188710182492
H            6.51855689681041       -4.97364689765421        0.14200735702697
H            7.87945821780318       -5.66930080189554       -0.74333840298531
H            6.27223393011493       -5.65209631151136       -1.46538548538652
H            5.04677965975599       -4.35697447136581       -2.87998335301065
H            2.92829558723392       -3.13955854634426       -3.05187313115995
H           -0.09640286342989       -0.12623851315003       -1.90231402451911
H           -0.14668990038648        4.18360653888874       -1.35747322109397
H           -1.59958515850052        6.11851109508087       -1.90425232300384
H           -4.03294665651790        5.95745670638054       -1.65267646112203
H           -5.11005225840192        3.87818417299845       -0.92563513142793
H           -5.62202225904273        1.79207938236459       -2.39198618989520
H           -7.85206180972796        2.74757326983439       -2.80799650081662
H           -9.51245024869272        2.85811749853580       -0.98385067863825
H           -8.91541911967276        2.04009902418411        1.26769415267367
H           -6.68681594768856        1.09133721906985        1.68572896726423
H           -0.99849748674207       -2.64850324460991       -0.55949588705563
H            1.23426575794574       -3.58583953265354       -0.11057553413661
H            2.74901586972718       -2.46529878274242        1.48243651392426
H            1.99329402665872       -0.43971706948829        2.67345504140999
H           -0.23699637619742        0.49683647543935        2.22743559535387
H           -1.66306197526008       -3.25720716784950        1.96811829719245
H           -2.72685716484557       -5.32352837037255        2.75832166180076
H           -5.14169479293865       -5.68278341225120        2.53098249998408
H           -6.58958750488697       -3.93265578669995        1.54711523732988
H           -6.44647354600905       -1.13665443773018       -1.77612228068900
H           -8.82519165311574       -1.01945313790176       -2.41751407450007
H          -10.57998320057299       -1.26331564287331       -0.70070249253215
H           -9.95257082477765       -1.64174734115168        1.65424086384457
H           -7.57237634401504       -1.72640452147938        2.29968213900516
H            0.65649452903931        3.08775909577335        0.84351012865568
