116
 energy: -173.127398733812 gnorm: 0.000081135924 xtb: 6.7.1 (edcfbbe)
C            8.47017423840165       -0.40690226935657       -2.51526668292444
C            7.43271072576399        0.20756634348258       -3.46571999007312
C            7.88821475505612       -0.05848592763037       -4.90288602275230
C            7.37180072815694        1.72742232308025       -3.25574094754111
C            6.06395265775313       -0.38595360551259       -3.16634664771516
C            5.30448062947242       -1.06380707615302       -4.12051398800836
C            4.05065292053892       -1.54377718750932       -3.81437962504823
C            3.51996764741016       -1.37770963189074       -2.53616781988631
C            4.27271457344945       -0.75280427217388       -1.52544439797574
C            5.52500090561234       -0.25306309181995       -1.89800240934501
B            3.62867192646451       -0.67017199467939       -0.12218039248180
C            4.16454848848838       -0.22966052322499        1.25936890015912
C            5.49720325446545        0.04052550041085        1.58775894813389
C            5.91477102494777        0.46279883101649        2.83842201647378
C            7.39406532940407        0.71619309902763        3.08935683973158
C            8.16429378770246       -0.59525041484737        2.87844411519830
C            7.90122164845819        1.78011109162496        2.10535956570754
C            7.67381521093123        1.21181058655268        4.51058122726299
C            4.93815452123043        0.62641897883681        3.82139407784067
C            3.61706902182388        0.34042367362636        3.55873499757483
C            3.22333945277220       -0.10228752047159        2.29688104688207
O            1.89716392333022       -0.39297275864553        2.18165397384400
C            1.37900955561889       -0.90468677380061        1.04550212351018
C            0.02597015629886       -1.21376472755509        1.04668046001167
C           -0.55975199483849       -1.69342172837275       -0.11750044441214
N           -1.94896067221152       -1.89572270750641       -0.15399258539348
C           -2.56143518092863       -3.12115593109409       -0.26435696754781
C           -1.97653603166788       -4.37004993347363       -0.41428719020159
C           -2.81124836457426       -5.46887203196578       -0.45782605555781
C           -4.19213020330226       -5.32879618486992       -0.33918575267252
C           -4.77650491157260       -4.08754137521902       -0.18269838646486
C           -3.96146000707862       -2.96102853435952       -0.15474276530511
C           -4.19873318915972       -1.54933596144268       -0.00238547054982
C           -5.37491526057534       -0.80997725517200        0.13431792495760
C           -6.70038806870695       -1.45739970710260        0.15415701643417
C           -7.47110658279902       -1.44005800287244        1.31130247160850
C           -8.72657309576585       -2.01833698276022        1.32397188414215
C           -9.22556585371943       -2.62227663476527        0.18263752878623
C           -8.45825310977886       -2.65694047534883       -0.96947773828267
C           -7.20174314082920       -2.08048086015716       -0.98411983247273
C           -5.21587104077608        0.56716348325452        0.25938446673798
C           -3.93830752229595        1.19138699689094        0.27356852323618
C           -2.76142792800115        0.45351898040834        0.13765409487557
C           -1.43833696424979        1.10987361776606        0.12913176597456
C           -0.93035798923933        1.68802177598302        1.28847213258478
C            0.32851250851186        2.25986657453091        1.29253884829164
C            1.09243427492949        2.26609865890274        0.13754782524944
C            0.58268095233010        1.71726288521552       -1.02700877431615
C           -0.67685188928037        1.14657021457817       -1.03396522416740
C           -2.92177658402414       -0.92324471140057        0.00557290785761
C           -4.17439567740957        2.60344988097530        0.41705566090605
C           -3.35458788219819        3.72618900377404        0.45210752166960
C           -3.93627811216903        4.97124667253421        0.58514921103225
C           -5.31881969576709        5.11729730167038        0.67122556792702
C           -6.15698291107443        4.02112759137104        0.62429797964536
C           -5.57552355795894        2.76723698668880        0.50283341090176
N           -6.19053013624565        1.53993184400509        0.40198114152642
C           -7.58436757593599        1.37611493223704        0.30372087130132
C           -8.39902229046651        1.72749329447696        1.37347528143190
C           -9.76946503260799        1.57166763814437        1.27574648489301
C          -10.33185924839509        1.06713841639037        0.11580808628285
C           -9.52182278548524        0.73532113918833       -0.95732000170296
C           -8.15263423883214        0.89794883576136       -0.87168450754245
C            0.20023243156607       -1.94815099088484       -1.25155486853026
C            1.55336799240630       -1.63520013699233       -1.23969983566104
C            2.16553555405827       -1.09021805213804       -0.10134888187583
O            2.24905523076495       -1.84602511333323       -2.37921652090715
H            8.49142959748291       -1.48870699204196       -2.62947282825626
H            8.24358668829310       -0.17875103872469       -1.47757571060376
H            9.46076461038856       -0.01637824918211       -2.73870447691639
H            8.87090182671395        0.38208343803652       -5.05919883966581
H            7.20355314471638        0.38845054425699       -5.61992302918952
H            7.96409482609024       -1.12572494694986       -5.09804503958192
H            8.33855195939065        2.17570457011642       -3.47525636468677
H            7.10513670762094        1.97653853634091       -2.23221844495234
H            6.62869673293491        2.16837270513569       -3.91692398991856
H            5.67681308054719       -1.21101059257181       -5.12087105330219
H            3.45145434469906       -2.04352637587077       -4.56032847399625
H            6.08286088546247        0.28319637000361       -1.14806658553811
H            6.23444586571114       -0.11546177812276        0.81742988854000
H            9.22538604678097       -0.44138216586606        3.06332931768012
H            8.04515737120517       -0.96690475060044        1.86432133318309
H            7.80135204089130       -1.35817145434289        3.56399754344257
H            7.33533523026213        2.70197003621310        2.22260583797484
H            8.95151339584856        1.99339759801957        2.29270098734530
H            7.80284993108699        1.44889153971528        1.07541553950671
H            7.15955326867166        2.14998283488424        4.70610977213191
H            8.74172334008069        1.38272054443768        4.63132186083567
H            7.36749139212005        0.47526506234123        5.24968212037206
H            5.20041045764979        0.96502621458945        4.81016880100271
H            2.86488553151527        0.44103002116323        4.32637896720382
H           -0.56519358793534       -1.05183216370050        1.93313381047234
H           -0.90425264032112       -4.47392542510199       -0.48624623741053
H           -2.38637619355360       -6.45475625453741       -0.57685483874557
H           -4.81564546689712       -6.21024807469984       -0.36453585138387
H           -5.84573273953076       -3.99749114289892       -0.07517684089295
H           -7.07889920129378       -0.97205451574946        2.20285065942539
H           -9.31870929073646       -1.99632432977258        2.22716325532252
H          -10.20895439876223       -3.06878406397890        0.19211664566274
H           -8.84091736344282       -3.13402067318850       -1.86025675331127
H           -6.60081332470625       -2.10411596360866       -1.88218174833022
H           -1.52582872110503        1.67508874774144        2.19019233580787
H            0.71921545002371        2.69416829708395        2.20121689207124
H            2.08306531349709        2.69718648241393        0.14450120901903
H            1.17213830781618        1.73021019851583       -1.93253110365894
H           -1.07560267132699        0.72046683900803       -1.94323515433446
H           -2.28387288965635        3.62926803842628        0.36831673696341
H           -3.30994393032486        5.85053230624866        0.61590172140429
H           -5.74301924507502        6.10595236224285        0.76787135495756
H           -7.23004576517755        4.13360660166097        0.67022192081858
H           -7.95052781274234        2.10933524854880        2.27898827599319
H          -10.39970361956265        1.83906485155936        2.11112039580893
H          -11.40138139112277        0.93774248213051        0.04567568042210
H           -9.95907035523497        0.35365262703006       -1.86775870712503
H           -7.51520132839123        0.65508880786462       -1.70840614848406
H           -0.25893170916814       -2.33409101974627       -2.14773981658904
