75
 energy: -113.140198603789 gnorm: 0.000136371733 xtb: 6.7.1 (edcfbbe)
N          -10.27619925052197        1.11689315316126       -0.24094192514951
C           -9.12814765771497        0.98502556321616       -0.19978276434943
C           -7.74476174985255        0.82491578174710       -0.14880536823981
C           -7.11247579684401       -0.21577248689694       -0.86112618905577
C           -5.75724900704259       -0.37734702177872       -0.79770197964019
C           -4.93928893726268        0.48946812718277       -0.02979932591155
C           -3.51926954731309        0.32618944234563        0.03997789983357
C           -2.68255584565950        1.45593506145385        0.12703649488425
C           -1.31515017970844        1.39668068219646        0.01165812452489
C           -0.56772220595832        2.64826943566782       -0.12398735990942
C           -0.82706603366016        3.73040197661659        0.72057232181949
C           -0.13691882164507        4.91830805357134        0.57718159381446
C            0.81290479110133        5.05777293316184       -0.42336142640665
C            1.06586835364266        3.99814812443638       -1.28074579655992
C            0.38739422301377        2.80439105719788       -1.13319064092090
C           -0.66929857143798        0.11424898757481       -0.12472581687909
C            0.74785339843524       -0.04764298608077       -0.06082572088775
C            1.57282879698719        0.81648456509084        0.70451341453080
C            2.92933319243827        0.66155179864721        0.74873528269025
C            3.56241445064579       -0.37413327746345        0.03488467956751
N            4.93766008323769       -0.52082187600965        0.06601247859726
C            5.76293323250014        0.60478176244438        0.17020522494724
C            5.43349835741684        1.78466581202020       -0.50122708164737
C            6.25108687874082        2.89231178314136       -0.39569666359113
C            7.40391345384162        2.84278771049570        0.37376887780835
C            7.73625345490688        1.67251127795979        1.03972594899870
C            6.92490298580319        0.55912671862813        0.94389051973878
C            5.51464630104160       -1.79371423993764       -0.00581973103382
C            4.91811515783807       -2.87685665580361        0.64421027050605
C            5.49148386369761       -4.13090384038928        0.56838893153173
C            6.66294714310244       -4.32493935195469       -0.14803959495352
C            7.25992032972708       -3.25178579538962       -0.79286821799803
C            6.69425854281176       -1.99380440082993       -0.72672950215059
C            2.75548788618261       -1.26155257440754       -0.70477314405908
C            1.39833857734087       -1.10805490227232       -0.74202962159766
C           -1.50649179503339       -1.01662221481913       -0.20718249083625
C           -2.87243322376861       -0.95733211530634       -0.08527236308467
C           -3.61609720453743       -2.21261006517918        0.05479966106523
C           -3.35800585571665       -3.29527177519904       -0.78855738675791
C           -4.03752411329711       -4.48823732953461       -0.63416276960069
C           -4.97655985074097       -4.63101568077249        0.37531075092505
C           -5.22956104639773       -3.56945396278239        1.23073477832037
C           -4.55970083068480       -2.37236322520859        1.07320425808512
C           -5.58871324705772        1.54950259604337        0.65156341601686
C           -6.94502795244044        1.70779970186550        0.60796008266321
H           -7.71687923077543       -0.87714521631840       -1.46681572260689
H           -5.29364465866691       -1.15536088227823       -1.38449045559210
H           -3.14811650544858        2.43047934577874        0.15794526683280
H           -1.55509194442039        3.62179643993101        1.51209788615448
H           -0.33918300882125        5.74049656115845        1.24888318536891
H            1.34774549879195        5.98925869413269       -0.53676771910478
H            1.79255934533537        4.10787436374117       -2.07300577146965
H            0.57155624168717        1.98896937911151       -1.81756693778503
H            1.11178368914504        1.58049258755343        1.30985125452387
H            3.52697922618716        1.31549620095173        1.36664322321774
H            4.54462154633973        1.81647164349247       -1.11325601680351
H            5.99126200217837        3.79769273184681       -0.92349604626249
H            8.04056222993318        3.71071963387733        0.45268318079031
H            8.62952133768733        1.62979542831627        1.64484096949353
H            7.17567050130697       -0.34689112531566        1.47528175783069
H            4.01668323877290       -2.72126667562638        1.21826451830073
H            5.02584555928096       -4.96034777501151        1.07951582219426
H            7.10838468009950       -5.30645965293122       -0.20336862188472
H            8.16849180189362       -3.39794284934683       -1.35766103796205
H            7.15099537504424       -1.16156206331096       -1.24147373398614
H            3.22707895836766       -2.04644558883109       -1.27788755741975
H            0.81273901208393       -1.77215360474043       -1.35885244038832
H           -1.04354349967833       -1.99229996926074       -0.23810006443792
H           -2.64074211909009       -3.18404598595059       -1.58961813434021
H           -3.83787553595165       -5.31103740287882       -1.30611318195886
H           -5.50792840032768       -5.56380402131120        0.49550059767417
H           -5.95406941770939       -3.67704943748456        2.02560569379384
H           -4.75220510403202       -1.55349620770132        1.75157927342062
H           -5.00349680304614        2.22002634091223        1.26363500157755
H           -7.42501859912002        2.50667346894320        1.15680679670012
