75
 energy: -113.139489841331 gnorm: 0.000052672844 xtb: 6.7.1 (edcfbbe)
N          -10.14334905363564        1.15086185080495        1.32687289233866
C           -9.01453296495193        1.02085651146697        1.11226444164363
C           -7.65417670418756        0.86466266599897        0.85251740913738
C           -6.95030762740085       -0.25692384487851        1.33859118990462
C           -5.62227726798548       -0.41754394235137        1.06045575588361
C           -4.90071641025918        0.53291821201145        0.29499416042733
C           -3.50468488861202        0.36769217256256        0.02043767119493
C           -2.65815342957449        1.48989691779518       -0.07156761884561
C           -1.29173368782208        1.40398787595860       -0.17561610266227
C           -0.52514429949411        2.63042013076321       -0.40677240020124
C           -0.78590896102838        3.79100117451389        0.32555065450339
C           -0.08591802878386        4.95552310416447        0.07609610265259
C            0.87880785817014        4.99158951608530       -0.91927267105460
C            1.13663119265401        3.85128390234523       -1.66401768373632
C            0.44702498930962        2.68189388146804       -1.41086030934980
C           -0.66341762871391        0.10569654240074       -0.17538715349402
C            0.74946764728959       -0.06613085259047       -0.07909800034777
C            1.56816660558350        0.85646908622303        0.62602514428794
C            2.92033615209851        0.69235981207645        0.72015062023372
C            3.56026499122038       -0.40649485074096        0.11342252210988
N            4.93193651933382       -0.56259847775532        0.19078036303056
C            5.76721008112241        0.55945540671843        0.22424567264070
C            5.46552219079819        1.68643285579901       -0.54449200914529
C            6.29284781350132        2.79114893540997       -0.50683079898175
C            7.42815772765729        2.79099743897113        0.28989859873513
C            7.73322675255125        1.67304263589976        1.05211300859520
C            6.91212731663639        0.56320417966138        1.02472682630032
C            5.49583327108769       -1.84251645691718        0.23388970377111
C            4.87144355415539       -2.86508143321364        0.95260945401462
C            5.42884230030668       -4.12805582491827        0.98525229932576
C            6.61144922201036       -4.39095355652121        0.31003784713347
C            7.23736995573351       -3.37732124458415       -0.40053042550812
C            6.68806622438579       -2.11120825356487       -0.44297549480957
C            2.76084316671171       -1.34610482073738       -0.56974027957426
C            1.40710314904542       -1.18595828541896       -0.65217782370411
C           -1.52214820655066       -1.01288208233537       -0.23329086898532
C           -2.88780350509213       -0.92466009679031       -0.14601454213421
C           -3.68227584730948       -2.14558589470624       -0.32801291622200
C           -4.76845862580796       -2.16228620596296       -1.20620398116344
C           -5.48673738317269       -3.32309401547265       -1.41581436275164
C           -5.14090229553598       -4.48987643419140       -0.75193684488413
C           -4.06118612910931       -4.48841843918718        0.11673988378600
C           -3.33554472031925       -3.33046657701087        0.32278786646741
C           -5.61560071867227        1.67108958669625       -0.15306882140937
C           -6.94880015727004        1.82935929661979        0.10213701384898
H           -7.47704110419720       -0.98477827257076        1.94060465312701
H           -5.09768843760865       -1.26450714833683        1.47538230041491
H           -3.10665712604279        2.47249266837570       -0.04982315232974
H           -1.52434454201820        3.76520271717169        1.11461995092087
H           -0.29221368010161        5.84057018083285        0.66112882994934
H            1.42185569631911        5.90441933985283       -1.11538782790303
H            1.87622918903189        3.87759538013530       -2.45152557159288
H            0.63569105786126        1.80292900681065       -2.00988505636653
H            1.10078853178008        1.67366570163827        1.15167675439601
H            3.50958014044381        1.38990834135638        1.29709951859637
H            4.59121651732651        1.67853466420134       -1.17783150058390
H            6.05441636096774        3.65521342606990       -1.10878629328710
H            8.07223764073444        3.65665130189087        0.31567999836906
H            8.61281922902197        1.66925582497050        1.67831910745038
H            7.14142341407719       -0.30095174276757        1.63033783997907
H            3.96120128669846       -2.65425205972200        1.49411840159904
H            4.94176390881357       -4.91040143976376        1.54795938999687
H            7.04369341345288       -5.37946179839095        0.33884133598846
H            8.15543310372218       -3.57743255235722       -0.93244091330731
H            7.16694660630314       -1.32662541195029       -1.00970848931145
H            3.23780841760736       -2.17880083055578       -1.06573296003771
H            0.83249760719509       -1.89469005852040       -1.22820049599625
H           -1.08425437278464       -1.99546666354789       -0.32910578124425
H           -5.03639959678516       -1.25986487649134       -1.73693814931976
H           -6.32266975410557       -3.31862533947434       -2.10101968472295
H           -5.70970549180110       -5.39433309913992       -0.91134951346508
H           -3.78709401500772       -5.39426756930327        0.63904125835847
H           -2.50680725398799       -3.33138238151280        1.01703259846260
H           -5.11057939673182        2.40797143214468       -0.76038646403521
H           -7.48322667504516        2.69040472105270       -0.27587289964502
