75
 energy: -113.223521641411 gnorm: 0.000080099298 xtb: 6.7.1 (edcfbbe)
N          -10.53584431630060        1.35821383896940       -0.13731228590419
C           -9.40005137380761        1.18741130554609       -0.12713349468949
C           -8.00494927364085        0.98037722600231       -0.11802508139227
C           -7.38311324129247        0.44229623015690        1.01161825088410
C           -6.01985079430560        0.23884008587510        1.01146631198347
C           -5.24948133825386        0.56483429743003       -0.10541693496510
C           -3.79084873843759        0.37083935901412       -0.09597841386231
C           -2.96925450897817        1.42870335657082       -0.46854250163414
C           -1.58414748243077        1.33753655327671       -0.42686435572788
C           -0.77450245094454        2.51758988485775       -0.77980799947174
C            0.22046970410713        2.97932586919447        0.07818819220872
C            0.96580954854409        4.09647789088836       -0.24928697616070
C            0.72948461954298        4.76901154203666       -1.43734719260423
C           -0.26340021249371        4.32238626212652       -2.29323353198388
C           -1.01385824768202        3.20768637686707       -1.96492771646893
C           -0.99649635671722        0.13611486754827       -0.00714020546632
C            0.46493481514008       -0.04323740087049        0.01307386594784
C            1.10480060925993       -0.51784055548068        1.15540170822169
C            2.47470884344377       -0.67880813960741        1.18498618954703
C            3.24441164107698       -0.38094294575576        0.06048167093525
N            4.63601135321510       -0.53239258085278        0.09192806345618
C            5.34785445984628       -0.15867047234911        1.23770764535880
C            4.95926846759980        0.96014123711960        1.97533704789475
C            5.66092694457441        1.32623438645520        3.10772006574612
C            6.76260143630614        0.59325055267049        3.51907953908582
C            7.15431286625236       -0.51749882311053        2.78895660108288
C            6.45340748303881       -0.89710592157529        1.66038589021053
C            5.30778438572345       -1.04603657056969       -1.02292980720933
C            4.72787480979097       -2.05592700037887       -1.79140284599366
C            5.39221542231880       -2.56326343456116       -2.89133375881862
C            6.64402134010416       -2.08193595747480       -3.23967515294839
C            7.22507397602079       -1.07955160361343       -2.47951682574261
C            6.56473288467036       -0.55948821084420       -1.38298399442930
C            2.60397564382713        0.07144654929547       -1.09354472548252
C            1.23570013530865        0.23989232164120       -1.11228964710058
C           -1.81809045937292       -0.92135616145283        0.36294201344845
C           -3.20394728922503       -0.83155959661461        0.32216085159570
C           -4.01099108474497       -2.01636904235779        0.66391478005555
C           -5.00723450966603       -2.47045278638492       -0.19694853681936
C           -5.74923947741887       -3.59342342172124        0.11875763602878
C           -5.50817305896419       -4.27927418159375        1.29817140532803
C           -4.51388852733069       -3.84045898485215        2.15682795287103
C           -3.76661894581722       -2.72041356668375        1.84016475055278
C           -5.87820508340338        1.11502418025811       -1.22276725979855
C           -7.24220147814053        1.31795642005681       -1.23831467352804
H           -7.97639871173120        0.19152778588922        1.87888000281067
H           -5.54037004507698       -0.16793461709755        1.88870979360178
H           -3.42150461440189        2.36739518900648       -0.75623588112107
H            0.39938961270777        2.46462420059153        1.01086931937662
H            1.73400752975388        4.44609893822235        0.42564633659658
H            1.31534077842241        5.63978603263850       -1.69356363336112
H           -0.45363513500083        4.84466249855863       -3.22011100855164
H           -1.78015436915175        2.85472408287730       -2.64080447331345
H            0.52172543772633       -0.74682338411723        2.03611377363800
H            2.96046704385994       -1.03715905952277        2.08112926687045
H            4.10748754412023        1.53997649181254        1.65023486357831
H            5.35071991718589        2.19668739393044        3.66774734133845
H            7.31178102593712        0.88517677452971        4.40171674980074
H            8.00808334010807       -1.09928603143765        3.10525428509515
H            6.75607280768715       -1.76910472657835        1.09880972285468
H            3.75627838892387       -2.44033859294376       -1.51662217423483
H            4.93262689410060       -3.34789229285488       -3.47495453651027
H            7.16238636818845       -2.48453352084180       -4.09697649715849
H            8.19771033927247       -0.69241148588537       -2.74709005467607
H            7.01682197294687        0.22902348473787       -0.79889592754144
H            3.18977424657997        0.29755278219579       -1.97258278129399
H            0.75507347437561        0.59445455531699       -2.01206924877673
H           -1.36363420970011       -1.85773780225595        0.65442051410002
H           -5.18958906417452       -1.94706491826020       -1.12444593472869
H           -6.51833923083773       -3.93610970227695       -0.55862167928908
H           -6.09121808229874       -5.15452053592757        1.54510813240086
H           -4.32002627188852       -4.37356313008721        3.07668457906361
H           -2.99856038562411       -2.37404251475545        2.51726813699133
H           -5.29040117415642        1.36640644783208       -2.09341475497896
H           -7.72790856819071        1.73484342157347       -2.10875074681194
