  75
       -113.09004507
 N        -10.2641542027        1.1237277693        0.1168675954
 C         -9.1184460966        0.9949133050        0.0889300916
 C         -7.7294032755        0.8387374040        0.0586732796
 C         -7.1370111673       -0.1601676589       -0.7363028563
 C         -5.7790382867       -0.3234896519       -0.7458354384
 C         -4.9304739483        0.5033232201        0.0288457231
 C         -3.5090851780        0.3285224715        0.0431503530
 C         -2.6645278798        1.4485737282        0.1257543642
 C         -1.3006902645        1.3764626736       -0.0247310632
 C         -0.5348159531        2.6071840142       -0.1928095344
 C         -0.7922613072        3.7303699012        0.5989390495
 C         -0.0662839903        4.8923802712        0.4326332509
 C          0.9227249753        4.9672661558       -0.5368483801
 C          1.1751068628        3.8683959746       -1.3432970186
 C          0.4582113841        2.7013747605       -1.1756163388
 C         -0.6701064372        0.0816205747       -0.1673975353
 C          0.7400198205       -0.0893462581       -0.0738150675
 C          1.5512721057        0.7848815429        0.6990340078
 C          2.9071436930        0.6417825949        0.7568121769
 C          3.5552104931       -0.3889597101        0.0508606809
 N          4.9346996361       -0.5129869504        0.0855604677
 C          5.7356744336        0.6304368134        0.1706318578
 C          5.3716922428        1.7971849429       -0.5054499416
 C          6.1607747403        2.9258940280       -0.4127208380
 C          7.3205554693        2.9112143309        0.3468554012
 C          7.6872276061        1.7545504184        1.0174332294
 C          6.9039001069        0.6206827162        0.9353347516
 C          5.5296704066       -1.7780531732        0.0466403584
 C          4.9378106024       -2.8555313911        0.7092577286
 C          5.5254286518       -4.1039778281        0.6641188147
 C          6.7072592931       -4.2983361715       -0.0340288988
 C          7.2999710505       -3.2309480136       -0.6911322949
 C          6.7192356672       -1.9789133468       -0.6564444253
 C          2.7637598492       -1.2930327710       -0.6847677253
 C          1.4060725164       -1.1542862072       -0.7344000837
 C         -1.5205332678       -1.0364382573       -0.2775755128
 C         -2.8828503822       -0.9607266078       -0.1358799303
 C         -3.6459585589       -2.2051066783       -0.0323236719
 C         -3.4065162728       -3.2619455214       -0.9131865274
 C         -4.1100269951       -4.4451374159       -0.8025251752
 C         -5.0553236941       -4.6039206538        0.1987493266
 C         -5.2895603852       -3.5689935091        1.0908385897
 C         -4.5955050492       -2.3811797940        0.9782135518
 C         -5.5409833716        1.5286301371        0.7892035859
 C         -6.8992887070        1.6854584742        0.8182303666
 H         -7.7698098374       -0.7899724810       -1.3448925847
 H         -5.3410000307       -1.0675821806       -1.3917618738
 H         -3.1220291474        2.4257342583        0.1728798570
 H         -1.5455903262        3.6724606909        1.3713818683
 H         -0.2682223353        5.7457450655        1.0635892607
 H          1.4873455935        5.8782940434       -0.6663901924
 H          1.9321770657        3.9262925297       -2.1121695472
 H          0.6403425820        1.8582530467       -1.8255900837
 H          1.0775079002        1.5449530227        1.2989919881
 H          3.4957545666        1.3030831423        1.3759565708
 H          4.4750730519        1.8032565678       -1.1076874696
 H          5.8722224078        3.8209675551       -0.9428908297
 H          7.9347955437        3.7955273364        0.4157977104
 H          8.5854592731        1.7378398351        1.6160356670
 H          7.1807573920       -0.2756535431        1.4710011665
 H          4.0266480543       -2.6979452997        1.2676639602
 H          5.0623340408       -4.9284496354        1.1850457876
 H          7.1637708495       -5.2754050831       -0.0653895566
 H          8.2175047202       -3.3764106943       -1.2410999608
 H          7.1727958806       -1.1502150376       -1.1804309528
 H          3.2497653234       -2.0795847927       -1.2439035080
 H          0.8327051112       -1.8316001831       -1.3483473087
 H         -1.0702695176       -2.0163193380       -0.3379123542
 H         -2.6846685716       -3.1356207226       -1.7077643719
 H         -3.9246679256       -5.2473759655       -1.5021854704
 H         -5.6043903039       -5.5296025849        0.2846018273
 H         -6.0178661124       -3.6906251831        1.8793173096
 H         -4.7704577746       -1.5848039116        1.6860132146
 H         -4.9236689185        2.1663064549        1.4044637245
 H         -7.3523721773        2.4533531495        1.4289145510
