  130
       -202.62850349
 O         -7.0957636944       -1.5318236111       -0.8517107129
 P         -7.3329373625       -0.1298217281       -0.4869007169
 C         -9.0864862909        0.3417900646       -0.6343385482
 C         -9.9890111152       -0.6590402992       -0.9635023417
 C        -11.3345007261       -0.3649170150       -1.0987441853
 C        -11.7775896589        0.9333732605       -0.9082858203
 C        -10.8762806686        1.9368569176       -0.5850386856
 C         -9.5318218887        1.6449736768       -0.4489250732
 C         -6.4528578480        1.0847558824       -1.5182645609
 C         -6.0968719587        0.6743469420       -2.7932871444
 C         -5.4242902958        1.5391553414       -3.6377653894
 C         -5.1117215333        2.8182283316       -3.2077730204
 C         -5.4755702669        3.2326097462       -1.9362567305
 C         -6.1485056060        2.3695699926       -1.0905016653
 C         -6.8846072984        0.3145576380        1.2250892745
 C         -7.7808193487        0.5639858884        2.2483247375
 C         -7.3132004558        0.8859696478        3.5119352300
 C         -5.9504312077        0.9614755233        3.7466573976
 C         -5.0421485367        0.7016396556        2.7353690295
 C         -5.5135178294        0.3618317218        1.4751473197
 O         -4.7260721978       -0.0000362166        0.4284521016
 C         -3.4085298829        0.3859510406        0.4235378334
 C         -3.0311847539        1.7215099995        0.4571535356
 C         -1.6934102854        2.0617360716        0.3861404204
 C         -0.7046706661        1.0837412632        0.2844787562
 C          0.7176952351        1.4423758971        0.2218005368
 C          1.2283078794        2.4958699616        0.9754673611
 C          2.5717971290        2.8145441843        0.9293159166
 C          3.4450664705        2.0876194786        0.1311928087
 C          4.9085256204        2.4614035188        0.0328987933
 C          5.8112917537        1.2515122596       -0.0805481396
 C          5.5330045040        0.1008156771        0.6491906522
 C          6.3833360816       -0.9857140655        0.6082222309
 C          7.5359581201       -0.9429962415       -0.1708680320
 N          8.3962001097       -2.0467526125       -0.2204082120
 C          9.7619790869       -2.0158847482       -0.0264379501
 C         10.5841520575       -0.9478906741        0.3042312102
 C         11.9323773411       -1.1993371631        0.4714945826
 C         12.4576143610       -2.4812834989        0.3233499663
 C         11.6413496929       -3.5518842823        0.0181021152
 C         10.2822630259       -3.3245975226       -0.1543831918
 C          9.1662037816       -4.1801868708       -0.4450934946
 C          9.0438276396       -5.5419533850       -0.6884427213
 C          7.7918238015       -6.0553936592       -0.9613480424
 C          6.6724487160       -5.2271586412       -1.0076740353
 C          6.7689492274       -3.8695542679       -0.7698107319
 C          8.0211534155       -3.3508888535       -0.4719871324
 C          7.8231510625        0.2086803361       -0.8965591920
 C          6.9720516290        1.2958138164       -0.8415541637
 C          5.0590274419        3.4412496979       -1.1151745109
 C          4.7552418091        3.2587522603       -2.4470486278
 C          4.9599028657        4.3131077972       -3.3272020888
 C          5.4544816643        5.5279728515       -2.8777651860
 C          5.7565527174        5.7188743159       -1.5390297622
 C          5.5559894607        4.6696334919       -0.6572828656
 C          5.7794789447        4.5735722238        0.7763593272
 C          6.2730702764        5.4974241276        1.6828274226
 C          6.3853452099        5.1272102037        3.0133134209
 C          6.0143973452        3.8578980518        3.4305460125
 C          5.5197506171        2.9279874267        2.5257865528
 C          5.3995653306        3.2932405247        1.2022296905
 C          2.9349277345        1.0477075747       -0.6386280203
 C          1.5941737403        0.7248300133       -0.5896372531
 C         -1.0987755850       -0.2515495219        0.2585014068
 C         -2.4339556800       -0.6029701681        0.3274373125
 P         -2.8759583882       -2.3691452315        0.3965150495
 O         -1.6794810845       -3.2227034653        0.5121889868
 C         -3.8489046848       -2.7287600787       -1.0962784238
 C         -3.8353593287       -1.8950773912       -2.2020310949
 C         -4.4916906964       -2.2829808531       -3.3574083480
 C         -5.1695413431       -3.4890205386       -3.4025060437
 C         -5.1790044912       -4.3236905557       -2.2965740732
 C         -4.5076289158       -3.9496321298       -1.1482928528
 C         -3.9783632639       -2.4867847631        1.8450787893
 C         -5.3549522038       -2.6344274006        1.7679360735
 C         -6.1017224224       -2.6781269632        2.9328382738
 C         -5.4827612124       -2.5681278929        4.1667723978
 C         -4.1067420962       -2.4207871209        4.2430719305
 C         -3.3560552582       -2.3816706166        3.0826885190
 H         -9.6154116811       -1.6624460499       -1.1097772781
 H        -12.0363627019       -1.1455666755       -1.3523712741
 H        -12.8268857733        1.1670267386       -1.0131998664
 H        -11.2242671907        2.9493788046       -0.4407299534
 H         -8.8269430826        2.4247724867       -0.1986249240
 H         -6.3441513208       -0.3328237878       -3.0948447299
 H         -5.1429552932        1.2197170798       -4.6307886186
 H         -4.5826257922        3.4952243294       -3.8623212492
 H         -5.2307455614        4.2317774141       -1.6044478632
 H         -6.4227193497        2.6858503971       -0.0925811427
 H         -8.8421714606        0.5123333799        2.0507367450
 H         -8.0112824047        1.0813534067        4.3113969109
 H         -5.5854395935        1.2173646137        4.7299560239
 H         -3.9793739664        0.7387855474        2.9237479888
 H         -3.7896180475        2.4863838943        0.5326800801
 H         -1.4130482989        3.1043067956        0.3922350674
 H          0.5718195665        3.0567808355        1.6242638374
 H          2.9462396194        3.6326105967        1.5262099848
 H          4.6396867075        0.0523370168        1.2532843929
 H          6.1669097016       -1.8687337295        1.1902726707
 H         10.1834063620        0.0456031186        0.4393114304
 H         12.5930875750       -0.3840166048        0.7268831188
 H         13.5174428553       -2.6360565847        0.4598953688
 H         12.0454091925       -4.5480998475       -0.0805591774
 H          9.9136769564       -6.1809934036       -0.6674188330
 H          7.6741117741       -7.1118898664       -1.1504952996
 H          5.7076126360       -5.6547213722       -1.2373826613
 H          5.8979830847       -3.2341253483       -0.8245892806
 H          8.7091723994        0.2434140081       -1.5123821815
 H          7.2094002992        2.1850635392       -1.4058690413
 H          4.3684476042        2.3155579101       -2.8030289500
 H          4.7303558749        4.1843854539       -4.3746633042
 H          5.6047976223        6.3345749320       -3.5801724065
 H          6.1399167709        6.6665667512       -1.1912825734
 H          6.5658700111        6.4854447147        1.3601389373
 H          6.7682361049        5.8341250804        3.7346032855
 H          6.1119585653        3.5880455860        4.4717422190
 H          5.2334913435        1.9403990111        2.8557399627
 H          3.5969647368        0.4768568617       -1.2723094024
 H          1.2152521683       -0.0820526429       -1.1985550816
 H         -0.3703655116       -1.0475750535        0.2174440025
 H         -3.3178071004       -0.9467221707       -2.1583830915
 H         -4.4710906431       -1.6419307527       -4.2273434683
 H         -5.6897439376       -3.7816675372       -4.3030173087
 H         -5.7063988658       -5.2657047910       -2.3331907530
 H         -4.4844643118       -4.5965923273       -0.2812651888
 H         -5.8405364628       -2.6904127717        0.8063326625
 H         -7.1745556414       -2.7899538135        2.8740537841
 H         -6.0722454282       -2.5976857318        5.0714628891
 H         -3.6221863806       -2.3357502127        5.2051561315
 H         -2.2798372432       -2.2760760811        3.1180355092
