  112
       -173.54325058
 N        -12.6843791356       -3.1726829776        0.0553411525
 C        -11.5838821380       -2.8252509964        0.0586344759
 C        -10.2529620623       -2.4007631558        0.0603661863
 C         -9.2124324088       -3.2940243314       -0.2706802079
 C         -7.9167088775       -2.8664911498       -0.2781406518
 C         -7.5780756470       -1.5222095946        0.0287334850
 C         -6.2050872358       -1.1765373831       -0.0110587553
 N         -5.2483739920       -2.1086465002       -0.0395766722
 C         -4.0827119418       -1.4724451347        0.0042851689
 C         -2.7829120912       -2.0423748340        0.0219108308
 C         -2.6024051032       -3.4301293367        0.0116016415
 C         -1.3416175959       -3.9739497531        0.0323455634
 C         -0.2222080977       -3.1362127223        0.0774406926
 C          1.1316445597       -3.6881445816        0.0925116452
 C          1.4546650394       -4.8201628008       -0.6597498170
 C          2.7359969699       -5.3229156687       -0.6783156950
 C          3.7474801642       -4.7169856707        0.0722557135
 N          5.0477630751       -5.2145891750        0.0476169702
 C          5.2721407506       -6.5916967214       -0.0845699096
 C          6.3228575048       -7.0621695175       -0.8716740928
 C          6.5432968098       -8.4201204360       -0.9953239760
 C          5.7210330145       -9.3261758555       -0.3450714441
 C          4.6747933655       -8.8632935848        0.4364076478
 C          4.4498653594       -7.5070750579        0.5717640694
 C          6.1392151589       -4.3425108396        0.1413276524
 C          7.2812250140       -4.7164288199        0.8495299864
 C          8.3590100690       -3.8566572337        0.9341553050
 C          8.3145941036       -2.6133075891        0.3245621128
 C          7.1817499973       -2.2364709617       -0.3784973436
 C          6.1020487259       -3.0921518049       -0.4764621586
 C          3.4266569598       -3.5978609640        0.8454297622
 C          2.1462668146       -3.0927732511        0.8464768301
 C         -0.4074573482       -1.7543477312        0.0907410225
 C         -1.6709067957       -1.1680679318        0.0561079465
 C         -1.8725281995        0.2773662364        0.0329573543
 C         -0.8053444740        1.1526410052        0.0430176587
 C         -0.9403838372        2.5491402030       -0.0381147426
 C          0.2189760812        3.4043426673       -0.0230965249
 C          0.2194567652        4.6626920341       -0.6557823139
 C          1.3319745495        5.4647469422       -0.6635840375
 C          2.5124021640        5.0592301567       -0.0252805553
 N          3.6462174901        5.8640006682       -0.0388488677
 C          4.9196066218        5.2845559912       -0.0728043878
 C          5.9725325792        5.8529330489        0.6455489331
 C          7.2280133909        5.2790488427        0.6080641032
 C          7.4537702341        4.1324024273       -0.1368681540
 C          6.4111724319        3.5636962909       -0.8511026431
 C          5.1531854245        4.1326807020       -0.8254789852
 C          3.5224572967        7.2582373933       -0.0203752198
 C          2.5335645478        7.8699703273        0.7509493664
 C          2.4166159527        9.2459647914        0.7640190561
 C          3.2808779727       10.0309490352        0.0173297708
 C          4.2665350113        9.4278864395       -0.7478567076
 C          4.3891368934        8.0526057908       -0.7720852118
 C          2.5217404285        3.8185224398        0.6268169252
 C          1.4098238381        3.0166087122        0.6226726407
 C         -2.2521815992        3.0669588099       -0.1586495443
 C         -3.3337992530        2.2439572760       -0.1368157799
 C         -3.2041326318        0.8321035759       -0.0165540704
 C         -4.2755864885       -0.0553916839        0.0292035689
 N         -5.6450086227        0.1096941962        0.0227007474
 C         -6.3521136942        1.3232736160       -0.0160318003
 C         -7.0904924329        1.6597578113       -1.1480216925
 C         -7.7946268230        2.8488617135       -1.1789663460
 C         -7.7662699682        3.7058170066       -0.0900442810
 C         -7.0302337712        3.3717446272        1.0363506333
 C         -6.3235022255        2.1845896580        1.0791622132
 C         -8.6284587676       -0.6461298446        0.3927336736
 C         -9.9272222361       -1.0754346583        0.4066340149
 H         -9.4590978425       -4.3163305611       -0.5181415186
 H         -7.1119978546       -3.5386970450       -0.5286647104
 H         -3.4840944573       -4.0513742011       -0.0070242035
 H         -1.2115669491       -5.0456363779        0.0430162002
 H          0.6959304643       -5.2861991458       -1.2703833300
 H          2.9715665484       -6.1816300356       -1.2897293515
 H          6.9575550014       -6.3559787411       -1.3870602701
 H          7.3577268533       -8.7727944960       -1.6103365187
 H          5.8947265962      -10.3863532017       -0.4466803828
 H          4.0331221228       -9.5624388290        0.9515876650
 H          3.6413634025       -7.1460606436        1.1907766968
 H          7.3127660579       -5.6808586674        1.3351365871
 H          9.2362112876       -4.1573077652        1.4873229376
 H          9.1576214008       -1.9433438961        0.3954345825
 H          7.1411407808       -1.2722144093       -0.8631784925
 H          5.2250268845       -2.8028238780       -1.0371566182
 H          4.1915604094       -3.1361446635        1.4526907076
 H          1.9165038853       -2.2423433181        1.4712692118
 H          0.4772055563       -1.1385187047        0.0931231504
 H          0.1972213336        0.7594379093        0.0648992344
 H         -0.6591958184        4.9873107981       -1.1914742705
 H          1.3136927311        6.4099773040       -1.1865849571
 H          5.7943802533        6.7396068083        1.2363918918
 H          8.0336830344        5.7259211541        1.1710761006
 H          8.4359097730        3.6860342836       -0.1614837746
 H          6.5801788496        2.6751340465       -1.4410698736
 H          4.3442155772        3.6978946771       -1.3942304629
 H          1.8692652100        7.2581297008        1.3436721798
 H          1.6505689934        9.7086229176        1.3681979919
 H          3.1870083593       11.1058055097        0.0318511870
 H          4.9399034896       10.0322072179       -1.3370422812
 H          5.1497516863        7.5819038490       -1.3779211443
 H          3.4118472545        3.5069015765        1.1542120757
 H          1.4390750291        2.0873944979        1.1709001530
 H         -2.4011555084        4.1334750823       -0.2319637317
 H         -4.3203970184        2.6682233398       -0.2245064929
 H         -7.1103129392        0.9815657961       -1.9882393091
 H         -8.3659127781        3.1085425397       -2.0575830328
 H         -8.3183566844        4.6327845443       -0.1180871735
 H         -7.0097729356        4.0361242539        1.8874210238
 H         -5.7466514021        1.9136528546        1.9519676802
 H         -8.4123501715        0.3640518192        0.6975589158
 H        -10.7206671655       -0.3995743492        0.6925182602
