49
 energy: -89.631777773677 gnorm: 0.000050672093 xtb: 6.7.1 (edcfbbe)
C            9.00103178037640       -0.48134846541070        0.00696858743545
O            7.98501494304419       -1.46270532666825        0.02396884612276
C            6.68754876162631       -1.06301413808257        0.01148102186998
C            5.73215270759367       -2.08427276425592        0.03677584011503
C            4.38894230365080       -1.79349164089049        0.02750457218212
C            3.94251529362180       -0.46593613075810       -0.00696131054239
C            2.53231455563575       -0.14787793618065       -0.01566428206561
C            1.45357170957311       -0.99292428947043        0.00985121757417
C            0.19977790110528       -0.34824185056799       -0.02487397307501
C           -1.06312542636515       -1.09298091511363       -0.02610092260072
C           -2.03755320466781       -0.85490816669652       -0.99158478860011
C           -3.21264134679263       -1.57928259360092       -0.99345806600989
C           -3.42206107938385       -2.55192964696709       -0.02242565464076
C           -4.68383455615190       -3.35820129154879       -0.03578957857553
F           -5.73554648138432       -2.70246382298869       -0.55834919881813
F           -5.07094473579332       -3.76595600507347        1.18743877220335
F           -4.56662837437759       -4.49236724675491       -0.76995384105624
C           -2.45104380985384       -2.81233772450527        0.93641026630380
C           -1.27667202190292       -2.08485689517923        0.92842300801026
C            0.31797435337114        1.02759188328140       -0.06225389806926
C           -0.70701554391652        2.02318223365863       -0.01594833578469
N           -1.99263315132865        1.78671067655141        0.09251195418468
C           -2.59939103191568        3.01060275713292        0.11627714537310
C           -3.94780955508593        3.34411184390711        0.21121303609648
C           -4.27651421445903        4.68310788532120        0.20530797330991
C           -3.30207491888883        5.68052347176773        0.10817332733025
C           -1.95868504006111        5.37411575359780        0.01299645238227
C           -1.62038650345806        4.03113531140023        0.01710483660738
N           -0.42454668730201        3.36913335926052       -0.06556745832572
S            1.99106854407966        1.50645384257294       -0.06247757015618
C            4.90449295638030        0.54416162818061       -0.03247090739583
C            6.25547610383810        0.26039563892882       -0.02358870593091
H            9.93896322605524       -1.03380232867627        0.02500142149711
H            8.95375103245224        0.12540589622212       -0.90199922005235
H            8.94340500493722        0.16634709683153        0.88664998558183
H            6.07788583493932       -3.10597635513921        0.06327721539185
H            3.67758836988304       -2.60314263849404        0.04672410709620
H            1.53894464195050       -2.06366318537696        0.03019343177212
H           -1.87279236714548       -0.10222928119734       -1.74473499455879
H           -3.96979708434563       -1.39114987252095       -1.73916079892533
H           -2.62078185242931       -3.57274947711996        1.68363873493040
H           -0.52521582830963       -2.27723901558253        1.67892471259102
H           -4.69695893987716        2.57171938289111        0.28596735086519
H           -5.31402997290032        4.97485554456069        0.27689440132624
H           -3.60953996812753        6.71568464716745        0.10802948018165
H           -1.20656934139681        6.14517663970948       -0.06185747254595
H            0.49064292885973        3.78115794107570       -0.14146350670452
H            4.58504049102985        1.57627159240647       -0.05930321666268
H            6.96096775372037        1.07538646417189       -0.04419113759411
