49
 energy: -89.631694957338 gnorm: 0.000117377298 xtb: 6.7.1 (edcfbbe)
C            8.42717896123434        0.74839911120837        0.17408387620377
O            7.60695878864620       -0.38243106810585       -0.03590814019149
C            6.25846282727344       -0.22308967216828       -0.03714666584004
C            5.50583679828153       -1.38195884096619       -0.25398724688093
C            4.13223598241542       -1.33687991385955       -0.27264329863351
C            3.45272464649388       -0.12812976757999       -0.07524033766405
C            2.00786511188487       -0.07140851302562       -0.08448096837163
C            1.10218627838990       -1.09886931046359       -0.04275530049498
C           -0.24795372480156       -0.69263505603206       -0.07571469879039
C           -1.35905087258644       -1.64903372065766       -0.04300693519507
C           -2.36483239862689       -1.61708169157715       -1.00551988780520
C           -3.39860246622023       -2.53011821016663       -0.96483122499447
C           -3.43107325355972       -3.48990162926424        0.04177284289841
C           -4.58126158361144       -4.44782667110393        0.08394468708195
F           -4.39220401197653       -5.48959037826956        0.91187802697810
F           -4.86432704051677       -4.98278757770454       -1.12254728701854
F           -5.73181066506166       -3.86299182860309        0.49160158134639
C           -2.42771700267666       -3.54195678168313        0.99978688531944
C           -1.39347069500030       -2.62667263023858        0.94804299809147
C           -0.38172032033367        0.68103903876686       -0.13279365461034
C           -1.57076881440707        1.47396989266614       -0.09284303774835
N           -2.79200568891376        1.00878413119109        0.01914286222852
C           -3.61076210693634        2.10253327448672        0.03550740846240
C           -4.99707017916574        2.18649767708962        0.13327662746156
C           -5.56311116749745        3.44365313563535        0.12122292559903
C           -4.78594599633507        4.60063369164542        0.01549650689655
C           -3.40953278395308        4.54233647496825       -0.08307386494967
C           -2.83318577118149        3.28305407784060       -0.07216958208395
N           -1.53703624768389        2.84841961253298       -0.15238721288250
S            1.17627529567138        1.45629775923984       -0.14733919605642
C            4.21306315291261        1.02252947674241        0.13298727400649
C            5.59299395514268        0.98500948799754        0.15527587907949
H            9.44994371750093        0.37783996140749        0.13045119424674
H            8.27875292305711        1.49898867471921       -0.60778449966604
H            8.24426190157727        1.19651845069723        1.15516329473217
H            6.03252096209092       -2.31085997514872       -0.40864023586073
H            3.57812521110360       -2.24400232107941       -0.45308036996251
H            1.38379784411555       -2.13473869579568        0.00321451525821
H           -2.33573680900073       -0.87580315965882       -1.78687834505556
H           -4.18093752829681       -2.50670945962609       -1.70820950944877
H           -2.45786620898095       -4.29128216985571        1.77600815236657
H           -0.61556573723497       -2.65839441890037        1.69566251549485
H           -5.59357048970282        1.29160931650007        0.21551366437600
H           -6.63613944782245        3.54268196956170        0.19495641664545
H           -5.27624449786978        5.56272028137407        0.01052866692069
H           -2.81012109950781        5.43665255995960       -0.16474514403712
H           -0.71163306794884        3.41891280733853       -0.23356633392891
H            3.70982009151012        1.96641500997211        0.28762493035910
H            6.13825322809124        1.89965558798361        0.32414624612412
