  61
        -96.96094092
 C         -6.3520973575       -0.1887336386        1.1537252962
 C         -5.3255532013        0.0409544839        0.0298349144
 C         -6.0437097176        0.4154776110       -1.2795356591
 C         -4.5508394826       -1.2426660711       -0.1974634106
 C         -5.2325711390       -2.3901693132       -0.5806830822
 C         -4.5797780083       -3.5803658502       -0.8404354199
 C         -3.2013426614       -3.6308214484       -0.7383336018
 C         -2.4996490571       -2.5059571691       -0.3593243927
 C         -3.1610339792       -1.3110413767       -0.0619267651
 N         -2.4282873599       -0.1949170062        0.3220716865
 C         -1.0266742095       -0.3013051900        0.4586032876
 C         -0.4865239748       -0.9960275905        1.5200338854
 C          0.8940405228       -1.0999086234        1.6765505658
 C          1.7486184749       -0.5116869105        0.7656400855
 C          1.2250531332        0.1924137765       -0.3381141564
 C          2.0863446938        0.7857285054       -1.2839925949
 C          1.5656392076        1.4592162808       -2.3693646178
 C          0.1829998685        1.5534150023       -2.5451409357
 C         -0.6736166893        0.9901687815       -1.6350563540
 C         -0.1777168311        0.3043609321       -0.5077419214
 C          3.5479019307        0.6802130358       -1.1266704282
 O          4.3334035391        1.1566470146       -1.9195501426
 N          3.9930131404       -0.0151673476       -0.0108373911
 C          5.4145284967       -0.1241891751        0.1545694624
 C          6.0242382398       -1.3631115996        0.0400568436
 C          7.3945071096       -1.4643065300        0.2015421194
 C          8.1493177954       -0.3343123111        0.4665371661
 C          7.5334836032        0.9008963631        0.5756821856
 C          6.1626126545        1.0103742794        0.4244071974
 C          3.2035536501       -0.6226209392        0.9568551631
 O          3.7049522369       -1.1981828577        1.9006311416
 C         -3.0378121968        1.0257710430        0.5853912405
 C         -2.2651987652        2.1000141166        1.0366139763
 C         -2.8374114795        3.3288687956        1.2881700436
 C         -4.1973154326        3.5051863511        1.1061572788
 C         -4.9684254675        2.4338258959        0.6965107351
 C         -4.4181755395        1.1855461548        0.4363690416
 H         -6.9534748251        0.7006834696        1.3185572858
 H         -5.8367230147       -0.4315446935        2.0810588701
 H         -7.0194545943       -1.0095793621        0.9075720656
 H         -5.3143699489        0.5601890913       -2.0746428908
 H         -6.7300102185       -0.3694754465       -1.5843479026
 H         -6.6093127211        1.3354762393       -1.1618881507
 H         -6.3065007107       -2.3586597587       -0.6832245566
 H         -5.1413587126       -4.4545344541       -1.1313237673
 H         -2.6675916590       -4.5426051052       -0.9599885414
 H         -1.4232846783       -2.5505970783       -0.3005647027
 H         -1.1474681614       -1.4576733274        2.2384745717
 H          1.3159579595       -1.6315683397        2.5157269411
 H          2.2479125163        1.9040703595       -3.0779648019
 H         -0.2082326889        2.0743700860       -3.4055480049
 H         -1.7415163639        1.0648034046       -1.7728797244
 H          5.4268057576       -2.2377319447       -0.1682155357
 H          7.8722567112       -2.4285181076        0.1153048381
 H          9.2190629679       -0.4162842122        0.5870305081
 H          8.1199195128        1.7836362534        0.7814762665
 H          5.6726901337        1.9685902575        0.5084397214
 H         -1.2064284507        1.9680038228        1.1965398131
 H         -2.2193202091        4.1446383277        1.6312248636
 H         -4.6570762511        4.4625806105        1.2963845601
 H         -6.0316017075        2.5785278177        0.5801061717
  61
        -96.96080331
 C         -6.2108995302       -0.5944505868        1.3180884313
 C         -5.3474708234        0.0012736114        0.1909255708
 C         -6.2439447703        0.5550134420       -0.9312019688
 C         -4.4730215626       -1.1018428844       -0.3735446808
 C         -5.0695630127       -2.2094738491       -0.9618169580
 C         -4.3296620463       -3.2674267398       -1.4550147978
 C         -2.9516679720       -3.2395456412       -1.3397965921
 C         -2.3334195402       -2.1541020154       -0.7559494758
 C         -3.0780034751       -1.0670741816       -0.2890846301
 N         -2.4272331019        0.0216467056        0.2793784939
 C         -1.0262937927       -0.0246039763        0.4557515517
 C         -0.5048345250       -0.2243573137        1.7165181457
 C          0.8718307904       -0.2871148466        1.9184520333
 C          1.7420321743       -0.1440374983        0.8562752383
 C          1.2388188142        0.0787902874       -0.4417641451
 C          2.1172676153        0.2421691095       -1.5329363008
 C          1.6163333690        0.4778249634       -2.7963888496
 C          0.2374750562        0.5630670409       -3.0054929878
 C         -0.6357360714        0.3993991969       -1.9614495195
 C         -0.1606171797        0.1455738500       -0.6586245446
 C          3.5755349063        0.1720028726       -1.3292012205
 O          4.3762876308        0.3192190513       -2.2290456423
 N          3.9991361569       -0.0628926108       -0.0286255954
 C          5.4163822444       -0.1382966343        0.1862117650
 C          6.1342361892       -1.2002289902       -0.3395073188
 C          7.4999103410       -1.2684540394       -0.1285800790
 C          8.1400551604       -0.2872350610        0.6091378187
 C          7.4153483604        0.7691578282        1.1342102819
 C          6.0507931307        0.8501458487        0.9211492971
 C          3.1923277548       -0.2283173711        1.0893711964
 O          3.6760149482       -0.4386577913        2.1825867088
 C         -3.1272921124        1.1143739926        0.7748795537
 C         -2.4231920779        2.2238748702        1.2517147697
 C         -3.0868981263        3.3219697304        1.7564513631
 C         -4.4698120154        3.3365845958        1.7850995602
 C         -5.1677203932        2.2556245834        1.2802488398
 C         -4.5245342009        1.1398789291        0.7608598561
 H         -5.5712437136       -0.9911770992        2.1044384971
 H         -6.8337383972       -1.4020422845        0.9437145104
 H         -6.8569924837        0.1636903915        1.7519039013
 H         -5.6288586603        0.9834762284       -1.7203706804
 H         -6.8572002701       -0.2306236600       -1.3627686199
 H         -6.9050551771        1.3297413244       -0.5541001509
 H         -6.1453323606       -2.2555520191       -1.0341232604
 H         -4.8259159485       -4.1102962719       -1.9104297549
 H         -2.3541846112       -4.0641939721       -1.6978175326
 H         -1.2596519396       -2.1519110090       -0.6546237498
 H         -1.1788500567       -0.3382243807        2.5525159935
 H          1.2785023046       -0.4590309192        2.9032629486
 H          2.3110658016        0.5994031327       -3.6137755122
 H         -0.1372459031        0.7595837643       -3.9983289549
 H         -1.7009580355        0.4634933915       -2.1240147685
 H          5.6250983817       -1.9609328216       -0.9117430126
 H          8.0628387588       -2.0932284485       -0.5388540010
 H          9.2052807793       -0.3458113903        0.7750617168
 H          7.9122151430        1.5357050428        1.7095353588
 H          5.4763452087        1.6695198861        1.3260887359
 H         -1.3445582039        2.2255535708        1.2198210442
 H         -2.5214154563        4.1651039974        2.1232614165
 H         -5.0015398165        4.1858408563        2.1852847320
 H         -6.2464106271        2.2866468737        1.2943271400
  61
        -96.96079411
 C         -6.4476244149       -0.0347722138        0.8880724098
 C         -5.2834871926        0.0948903827       -0.1103731492
 C         -5.8198321395        0.4373354222       -1.5126266815
 C         -4.5503639793       -1.2306308752       -0.1893465935
 C         -5.2509157089       -2.3723333771       -0.5558876203
 C         -4.6347125156       -3.6022166154       -0.6880754848
 C         -3.2723469915       -3.7009919115       -0.4716067736
 C         -2.5513667904       -2.5819880499       -0.1118239964
 C         -3.1778902455       -1.3438533675        0.0542843438
 N         -2.4291743815       -0.2305827922        0.4180823444
 C         -1.0268570843       -0.3360227975        0.5384175955
 C         -0.4634945064       -1.0051604492        1.6043737678
 C          0.9204910983       -1.1003828561        1.7361224125
 C          1.7556313379       -0.5233716641        0.8003147556
 C          1.2081158472        0.1582519987       -0.3061177522
 C          2.0487171999        0.7444874308       -1.2747006920
 C          1.5054048846        1.3916755978       -2.3649133729
 C          0.1196939936        1.4634970482       -2.5242567086
 C         -0.7170617488        0.9099011010       -1.5901186827
 C         -0.1979626075        0.2544360276       -0.4553035555
 C          3.5131888579        0.6734217136       -1.1278695040
 O          4.2817744906        1.1851844398       -1.9153723633
 N          3.9821200323       -0.0147573415       -0.0176609175
 C          5.4075048224       -0.1011732988        0.1281936750
 C          6.1440915420       -0.8474520149       -0.7774334787
 C          7.5187654514       -0.9196961247       -0.6402101276
 C          8.1499701688       -0.2578198587        0.3991910774
 C          7.4066631677        0.4815000849        1.3033684414
 C          6.0322804367        0.5663569161        1.1690245798
 C          3.2144657930       -0.6329278131        0.9605245221
 O          3.7373625986       -1.2299530024        1.8791261788
 C         -3.0169008334        1.0145271031        0.6078853798
 C         -2.2428377183        2.0710721074        1.0969887425
 C         -2.7873378911        3.3246567129        1.2766670740
 C         -4.1207263396        3.5443032904        0.9803150085
 C         -4.8965123059        2.4912971046        0.5336921346
 C         -4.3748860369        1.2173562564        0.3500435592
 H         -7.0119805130        0.8908728967        0.9504406468
 H         -6.0609348896       -0.2685014532        1.8780045576
 H         -7.1296139802       -0.8257520464        0.5907575313
 H         -6.4997135184       -0.3329747324       -1.8656641621
 H         -6.3510818434        1.3851070446       -1.5018457680
 H         -4.9945807791        0.5142306649       -2.2185929680
 H         -6.3098732019       -2.3035586781       -0.7520476216
 H         -5.2106991468       -4.4698451423       -0.9701026160
 H         -2.7653586746       -4.6469034556       -0.5875000118
 H         -1.4862411361       -2.6676312487        0.0345772125
 H         -1.1078169913       -1.4513683274        2.3472794430
 H          1.3603499295       -1.6163515120        2.5759366307
 H          2.1724967341        1.8339867663       -3.0893298659
 H         -0.2900894633        1.9606201965       -3.3901232332
 H         -1.7871882340        0.9700168592       -1.7161157711
 H          5.6419466148       -1.3596148061       -1.5841866831
 H          8.0960399749       -1.4970801570       -1.3464729302
 H          9.2228377243       -0.3177079858        0.5041172401
 H          7.8965938236        0.9985532237        2.1145596399
 H          5.4433841059        1.1412672120        1.8676288432
 H         -1.2058005294        1.9037475595        1.3435455512
 H         -2.1694385200        4.1260505939        1.6522927575
 H         -4.5571636724        4.5227138387        1.1080153202
 H         -5.9388933827        2.6728262577        0.3210760464
  61
        -96.96077395
 C         -6.3243347589       -0.4650472186        1.1257829377
 C         -5.3297828924        0.0440181654        0.0667376444
 C         -6.0896943184        0.6104683896       -1.1463014647
 C         -4.4759994877       -1.1225000658       -0.3931449925
 C         -5.0802893935       -2.2210122464       -0.9893319918
 C         -4.3542244682       -3.3191419082       -1.4116385464
 C         -2.9832977633       -3.3356394173       -1.2292690328
 C         -2.3570988618       -2.2587654629       -0.6377981793
 C         -3.0887170423       -1.1427128293       -0.2230609277
 N         -2.4302868639       -0.0750464617        0.3690717430
 C         -1.0249149842       -0.1403443693        0.5312301077
 C         -0.4869954077       -0.5036353976        1.7455880183
 C          0.8952643316       -0.5747787520        1.9189054732
 C          1.7473455830       -0.2799172537        0.8744048079
 C          1.2234270392        0.1020807531       -0.3778020196
 C          2.0819380436        0.4152777123       -1.4516752919
 C          1.5575058585        0.8021072996       -2.6674174347
 C          0.1742286287        0.8893657649       -2.8458313996
 C         -0.6799693333        0.5819439249       -1.8187985692
 C         -0.1792571507        0.1788374236       -0.5642152448
 C          3.5435003529        0.3273950333       -1.2827796958
 O          4.3278615068        0.5622535776       -2.1780356643
 N          3.9896974506       -0.0569997960       -0.0256184412
 C          5.4116758777       -0.1363731480        0.1564036390
 C          6.0087599169       -1.3698533850        0.3591005672
 C          7.3791087905       -1.4408392440        0.5360905243
 C          8.1458521001       -0.2886265914        0.5022947294
 C          7.5421439931        0.9401810583        0.2968878115
 C          6.1714976892        1.0217867251        0.1271907123
 C          3.2039496116       -0.3551458580        1.0790914473
 O          3.7082433576       -0.6513439822        2.1419919093
 C         -3.1047440941        1.0580848611        0.7990555964
 C         -2.3829663259        2.1269002297        1.3369836081
 C         -3.0255078250        3.2654228224        1.7758292090
 C         -4.4021024763        3.3587294161        1.6791605556
 C         -5.1150600846        2.3093174958        1.1296807591
 C         -4.4941175932        1.1527967345        0.6777727084
 H         -6.9604117620        0.3420010694        1.4795860316
 H         -5.7819014837       -0.8724707841        1.9772779652
 H         -6.9593168456       -1.2467323075        0.7181440791
 H         -6.7090668959       -0.1532428267       -1.6078087514
 H         -6.7319192673        1.4360391081       -0.8523576250
 H         -5.3830961091        0.9749725644       -1.8902432126
 H         -6.1505835873       -2.2268986105       -1.1282959053
 H         -4.8564163145       -4.1555817395       -1.8725367289
 H         -2.3981897870       -4.1866718087       -1.5434182776
 H         -1.2882896008       -2.2813883146       -0.4895783578
 H         -1.1476409504       -0.7357598275        2.5675012108
 H          1.3184630421       -0.8644307723        2.8686630933
 H          2.2373990913        1.0379901873       -3.4722434894
 H         -0.2182593246        1.2022343287       -3.8012284575
 H         -1.7487189940        0.6466037107       -1.9564055669
 H          5.4020225841       -2.2627681841        0.3813328971
 H          7.8477370160       -2.4005248263        0.6973184523
 H          9.2152666690       -0.3481764327        0.6391466011
 H          8.1375348737        1.8401627188        0.2716442239
 H          5.6908161279        1.9745414735       -0.0345630320
 H         -1.3078903345        2.0626925797        1.4079379444
 H         -2.4480780475        4.0781134895        2.1897969213
 H         -4.9172398385        4.2428336636        2.0215165465
 H         -6.1876844732        2.4003452342        1.0517696936
  61
        -96.96068629
 C         -6.3374711369       -0.3918796514        1.1220705345
 C         -5.3249048420        0.0390304670        0.0459425910
 C         -6.0627815484        0.5308450061       -1.2126605171
 C         -4.4741338270       -1.1603717510       -0.3272011876
 C         -5.0781338287       -2.2904802133       -0.8611339735
 C         -4.3523740676       -3.4129859958       -1.2148790266
 C         -2.9816655792       -3.4198402011       -1.0302633396
 C         -2.3557845181       -2.3118866998       -0.4987545784
 C         -3.0882347212       -1.1755401633       -0.1455432713
 N         -2.4310316358       -0.0790311754        0.3914759891
 C         -1.0242838787       -0.1360264164        0.5530259472
 C         -0.4826724537       -0.5094513576        1.7620286980
 C          0.9007779836       -0.5793316140        1.9300015612
 C          1.7484978049       -0.2712266237        0.8861767561
 C          1.2200871301        0.1231172231       -0.3603031648
 C          2.0739751104        0.4497466010       -1.4337918925
 C          1.5440109313        0.8422187018       -2.6451819520
 C          0.1595701226        0.9176544512       -2.8211619877
 C         -0.6900841774        0.5996529938       -1.7937860775
 C         -0.1833160706        0.1957918959       -0.5418165431
 C          3.5366529830        0.3753430243       -1.2666214466
 O          4.3190185327        0.6596314272       -2.1490156534
 N          3.9870731813       -0.0381890376       -0.0204733656
 C          5.4095565308       -0.1398186814        0.1479474880
 C          6.1065040059       -1.1318813203       -0.5225372164
 C          7.4769769559       -1.2285469845       -0.3598575196
 C          8.1424990300       -0.3446288893        0.4724424462
 C          7.4384377335        0.6418996399        1.1416465388
 C          6.0688315810        0.7508841698        0.9791097212
 C          3.2061326663       -0.3654220607        1.0790880896
 O          3.7137382240       -0.7173362874        2.1233805722
 C         -3.1015253662        1.0834658454        0.7393954954
 C         -2.3787671335        2.1750428009        1.2278074868
 C         -3.0179505505        3.3434721488        1.5858484268
 C         -4.3917285391        3.4423393290        1.4594014034
 C         -5.1059721987        2.3663673225        0.9654264555
 C         -4.4885769819        1.1796779125        0.5946196519
 H         -6.9752441790        0.4396257561        1.4085518012
 H         -5.8100780811       -0.7413114973        2.0076678400
 H         -6.9693868351       -1.1976129499        0.7591862730
 H         -5.3429131113        0.8374245034       -1.9694664542
 H         -6.6842526525       -0.2558326800       -1.6305971277
 H         -6.6996312064        1.3800979808       -0.9826580755
 H         -6.1475363105       -2.3014988604       -1.0065817459
 H         -4.8544275145       -4.2741645418       -1.6277783990
 H         -2.3965621118       -4.2870868299       -1.2965321452
 H         -1.2867025677       -2.3249022103       -0.3506610932
 H         -1.1401787004       -0.7531094593        2.5830372895
 H          1.3278584631       -0.8792659957        2.8747868715
 H          2.2201937637        1.0894424729       -3.4496828855
 H         -0.2372117921        1.2292304619       -3.7752300992
 H         -1.7596303204        0.6562004319       -1.9287338738
 H          5.5770676752       -1.8161826915       -1.1681051763
 H          8.0235665039       -1.9987928080       -0.8826259869
 H          9.2115225362       -0.4250622086        0.5998961490
 H          7.9554956797        1.3322766961        1.7907593695
 H          5.5102974953        1.5168145884        1.4956960192
 H         -1.3061129801        2.1038209720        1.3246383112
 H         -2.4404636144        4.1741883087        1.9622006001
 H         -4.9042279903        4.3497274585        1.7388061434
 H         -6.1768288045        2.4598121359        0.8681132471
  61
        -96.96043513
 C         -6.0632606891       -0.7364234414        1.4862109886
 C         -5.3466165922       -0.0886263890        0.2867189073
 C         -6.3768952389        0.4197083411       -0.7370192783
 C         -4.4708433825       -1.1415213444       -0.3663980875
 C         -5.0614161863       -2.2563898476       -0.9466179016
 C         -4.3151308626       -3.2704204790       -1.5170214315
 C         -2.9347278964       -3.1886212626       -1.4947598500
 C         -2.3212855464       -2.0971759425       -0.9167845220
 C         -3.0750029771       -1.0590923457       -0.3625342787
 N         -2.4311179731        0.0327504773        0.2067941161
 C         -1.0304119966       -0.0101896949        0.3975282561
 C         -0.5277430521       -0.2874607269        1.6505477816
 C          0.8463619360       -0.3568313792        1.8692581262
 C          1.7306203198       -0.1466175881        0.8304823825
 C          1.2459766602        0.1593902317       -0.4573721043
 C          2.1397331348        0.3939981734       -1.5226602771
 C          1.6557213403        0.7186722193       -2.7729842594
 C          0.2796405450        0.8202504026       -2.9946430822
 C         -0.6083542992        0.5808506975       -1.9780575734
 C         -0.1503010008        0.2387105575       -0.6893493862
 C          3.5944885350        0.2826314209       -1.3100859402
 O          4.4049160701        0.4440790226       -2.1985475393
 N          4.0004603919       -0.0374139381       -0.0214646213
 C          5.4115861278       -0.1694901652        0.2031388344
 C          5.9309282325       -1.4054060618        0.5548433092
 C          7.2890305054       -1.5329581206        0.7843512068
 C          8.1226250930       -0.4352565242        0.6531265080
 C          7.5976379868        0.7946937179        0.2949880965
 C          6.2389237203        0.9341123281        0.0732449586
 C          3.1778604349       -0.2398192300        1.0794516122
 O          3.6458508577       -0.4726424754        2.1748244372
 C         -3.1384289237        1.1025988314        0.7380908948
 C         -2.4406231602        2.2289346518        1.1829662887
 C         -3.1087730779        3.3104962799        1.7166497066
 C         -4.4889396446        3.2881526736        1.8088221843
 C         -5.1816339463        2.1862780058        1.3426400733
 C         -4.5345424211        1.0875667477        0.7930087987
 H         -5.3299939974       -1.1051517290        2.2013639983
 H         -6.6775476130       -1.5728215863        1.1638558559
 H         -6.7000730530       -0.0142193788        1.9900260140
 H         -7.0437917241        1.1499500504       -0.2885494904
 H         -5.8665053798        0.8896686303       -1.5756588189
 H         -6.9835244519       -0.3964282825       -1.1180337634
 H         -6.1368056572       -2.3463543606       -0.9480536247
 H         -4.8077354990       -4.1206880339       -1.9626085051
 H         -2.3312551478       -3.9760910937       -1.9201896443
 H         -1.2439850169       -2.0523481910       -0.8881006971
 H         -1.2138877773       -0.4576414960        2.4668288864
 H          1.2396458588       -0.5872209638        2.8475263352
 H          2.3611624570        0.8938949598       -3.5712830249
 H         -0.0807511997        1.0867162075       -3.9764335392
 H         -1.6718648602        0.6528947805       -2.1493113819
 H          5.2725914827       -2.2551693328        0.6538225222
 H          7.6952383052       -2.4935381302        1.0632470749
 H          9.1825633971       -0.5387397503        0.8305268163
 H          8.2456689850        1.6519333362        0.1918501683
 H          5.8202397398        1.8898489859       -0.2028382942
 H         -1.3645739316        2.2543597038        1.1029533986
 H         -2.5497570343        4.1688580314        2.0569745067
 H         -5.0236357155        4.1239389897        2.2328777701
 H         -6.2583552170        2.1860793075        1.4161346457
  61
        -96.95926072
 C         -5.2795815826       -0.7398064656        1.9506571237
 C         -5.2671733510       -0.1470737672        0.5245510762
 C         -6.7143389234        0.0571752908        0.0763975445
 C         -4.5145453835       -1.1253130968       -0.3564989982
 C         -5.1409792411       -2.0715775784       -1.1509750846
 C         -4.4200347298       -3.0452306153       -1.8223394336
 C         -3.0453838046       -3.0945717511       -1.6874897633
 C         -2.3938602288       -2.1446936171       -0.9259686958
 C         -3.1152039543       -1.1423520398       -0.2797836603
 N         -2.4581970810       -0.1471618262        0.4386268521
 C         -1.0484911162       -0.2137702124        0.5706780994
 C         -0.5096166234       -0.6626416004        1.7533410191
 C          0.8739327970       -0.7384008533        1.9240065952
 C          1.7246557820       -0.3640253519        0.9056282690
 C          1.1998478775        0.1013026135       -0.3182244177
 C          2.0583529319        0.4888650120       -1.3674659209
 C          1.5338672204        0.9456040009       -2.5586238524
 C          0.1504212001        1.0315946191       -2.7353104504
 C         -0.7038171765        0.6596358503       -1.7299792979
 C         -0.2027216568        0.1841116945       -0.5007047188
 C          3.5202805813        0.4034801105       -1.2002517912
 O          4.3047829439        0.7043802865       -2.0752519898
 N          3.9671836090       -0.0574569429        0.0305331965
 C          5.3896902225       -0.1415664583        0.2073900438
 C          5.9949559807       -1.3839217653        0.3042323438
 C          7.3656577861       -1.4606959576        0.4757844898
 C          8.1242576637       -0.3044208663        0.5425125264
 C          7.5123858415        0.9334505277        0.4416356471
 C          6.1413555896        1.0199971681        0.2774107352
 C          3.1820711531       -0.4461695947        1.1065357880
 O          3.6864410414       -0.8197371554        2.1448621162
 C         -3.0877245987        1.0783713180        0.6391032351
 C         -2.3373380951        2.2296532457        0.8717691261
 C         -2.9606417602        3.4538181240        1.0114306095
 C         -4.3356451521        3.5430628208        0.9031813630
 C         -5.0844008743        2.3954628016        0.7010537378
 C         -4.4862314821        1.1509973593        0.5885723562
 H         -5.7837489899       -0.0597607785        2.6339939143
 H         -4.2652278803       -0.8986801799        2.3077960868
 H         -5.8001421159       -1.6950990533        1.9536718775
 H         -6.7557839255        0.4755347597       -0.9267407662
 H         -7.2512366992       -0.8871514763        0.0903195458
 H         -7.2308902698        0.7238080000        0.7612048730
 H         -6.2140454379       -2.0707263169       -1.2486827135
 H         -4.9358987304       -3.7728998875       -2.4296558615
 H         -2.4736572534       -3.8657998934       -2.1811369199
 H         -1.3193100768       -2.1815918400       -0.8325627083
 H         -1.1682685363       -0.9577611142        2.5562374044
 H          1.2974873708       -1.0899958834        2.8523902759
 H          2.2136660251        1.2353322174       -3.3457057773
 H         -0.2431807178        1.3947864992       -3.6722334462
 H         -1.7720157171        0.7271517623       -1.8692136193
 H          5.3937896513       -2.2789956490        0.2504000687
 H          7.8404065442       -2.4270385188        0.5549064097
 H          9.1940811182       -0.3681181509        0.6731197063
 H          8.1019446050        1.8363882021        0.4931818553
 H          5.6539310446        1.9798975379        0.1981544546
 H         -1.2622208690        2.1670850759        0.9434846435
 H         -2.3668287159        4.3365685642        1.1945318264
 H         -4.8297978329        4.4980716259        0.9937432176
 H         -6.1565319571        2.4871176359        0.6452129260
  61
        -96.95912862
 C         -5.1774371407       -0.5451382595        2.0968659864
 C         -5.2536618522       -0.1284352006        0.6114819505
 C         -6.7265833899        0.0114076058        0.2272528329
 C         -4.5393837367       -1.1980453913       -0.1900952128
 C         -5.1938476840       -2.2334566302       -0.8372613611
 C         -4.4949025912       -3.2620189453       -1.4470080316
 C         -3.1130404697       -3.2681000681       -1.4111869326
 C         -2.4363673099       -2.2319841997       -0.7989934392
 C         -3.1386611069       -1.1897692084       -0.1959423489
 N         -2.4544075379       -0.1169019443        0.3681175266
 C         -1.0482327215       -0.2093986746        0.4981948076
 C         -0.5251310903       -0.7813328538        1.6354920786
 C          0.8543076835       -0.8937704179        1.8100971468
 C          1.7206395590       -0.4292192188        0.8426317246
 C          1.2135443336        0.1489031436       -0.3394353155
 C          2.0886039030        0.6159492903       -1.3415981486
 C          1.5830929354        1.1550117216       -2.5062559796
 C          0.2025897554        1.2342102015       -2.7074390582
 C         -0.6673889387        0.7970666194       -1.7426486823
 C         -0.1863431130        0.2561946072       -0.5322811887
 C          3.5479757722        0.5357982846       -1.1502254001
 O          4.3435803779        0.9581714367       -1.9628885542
 N          3.9777299108       -0.0503423405        0.0330814268
 C          5.3963243733       -0.1538735838        0.2243139278
 C          6.1442935954       -0.9612207673       -0.6176175397
 C          7.5119390981       -1.0552080092       -0.4318546523
 C          8.1248165182       -0.3555656835        0.5936730630
 C          7.3702670316        0.4453669710        1.4338933700
 C          6.0033789309        0.5535319282        1.2495068081
 C          3.1737697199       -0.5577252415        1.0451391466
 O          3.6596045928       -1.0806412680        2.0264591360
 C         -3.0855154050        1.1193297166        0.4736758215
 C         -2.3445354213        2.2951567302        0.5789101023
 C         -2.9791857592        3.5211423260        0.6097671275
 C         -4.3573632383        3.5867568521        0.5285293413
 C         -5.0972731734        2.4170069660        0.4792414995
 C         -4.4867159982        1.1734475984        0.4781085727
 H         -5.6446642133        0.2124612409        2.7222368695
 H         -4.1429432609       -0.6599433140        2.4101976069
 H         -5.6907476859       -1.4926476310        2.2457904537
 H         -7.2131554924        0.7486012619        0.8596068966
 H         -6.8309595208        0.3098661953       -0.8133554391
 H         -7.2477463111       -0.9292482892        0.3808821630
 H         -6.2707053906       -2.2593744538       -0.8645861347
 H         -5.0318162300       -4.0602795337       -1.9358310938
 H         -2.5565887484       -4.0716804422       -1.8693941214
 H         -1.3568968270       -2.2281997412       -0.7914057901
 H         -1.1956563985       -1.1445559807        2.3998277768
 H          1.2637178527       -1.3389291721        2.7040039023
 H          2.2751772288        1.5072237048       -3.2562191794
 H         -0.1762685511        1.6450861986       -3.6306311981
 H         -1.7333325242        0.8611726991       -1.8996797610
 H          5.6569589998       -1.5042135614       -1.4130554490
 H          8.0977481965       -1.6802075801       -1.0888535681
 H          9.1918159492       -0.4346607135        0.7381866993
 H          7.8456239500        0.9920681472        2.2343394596
 H          5.4067176647        1.1768532234        1.8981085494
 H         -1.2681664185        2.2529458602        0.6375251242
 H         -2.3914202549        4.4231424133        0.6890724564
 H         -4.8603598280        4.5414298467        0.5304417570
 H         -6.1718886624        2.4915276894        0.4554422615
  61
        -96.95903901
 C         -6.6628022769        0.2167948693       -0.2280150838
 C         -5.1513457030        0.1234102005       -0.4482105765
 C         -4.8665065270        0.3492753497       -1.9496598476
 C         -4.5937065598       -1.2450651366       -0.1011636392
 C         -5.3692089929       -2.3931926830       -0.1506245390
 C         -4.8128181690       -3.6549644224       -0.0330343541
 C         -3.4424831760       -3.7828753017        0.0892935195
 C         -2.6511223107       -2.6549408292        0.1728944768
 C         -3.2165589259       -1.3805145239        0.1338239766
 N         -2.4315160617       -0.2378368586        0.2854810625
 C         -1.0342392769       -0.3346753040        0.4340235188
 C         -0.4752308261       -1.0461928706        1.4774278212
 C          0.9059149615       -1.1471179720        1.6174343932
 C          1.7499132967       -0.5325187399        0.7136898363
 C          1.2112238423        0.2157821712       -0.3529117305
 C          2.0625315836        0.8589379847       -1.2752447378
 C          1.5316524256        1.5906336121       -2.3171916949
 C          0.1477873892        1.6969175828       -2.4696201536
 C         -0.6983743843        1.0815403436       -1.5834676944
 C         -0.1941344961        0.3288790917       -0.5041292638
 C          3.5259212738        0.7590235304       -1.1313881581
 O          4.3030274080        1.3021224078       -1.8894717210
 N          3.9836828343        0.0049820042       -0.0609129142
 C          5.4067486190       -0.1053757370        0.0899259296
 C          6.1412583412       -0.8245070322       -0.8388138566
 C          7.5129706246       -0.9260443342       -0.6895802337
 C          8.1429072839       -0.3199395841        0.3839453277
 C          7.4016915102        0.3939053865        1.3100924392
 C          6.0305825575        0.5072934889        1.1645632214
 C          3.2053247510       -0.6598359201        0.8775505786
 O          3.7186977464       -1.3090082796        1.7661981042
 C         -3.0379108731        0.9779780229        0.6012120447
 C         -2.3001176065        1.9725162357        1.2446024077
 C         -2.8894932048        3.1687645554        1.5977333290
 C         -4.2314933333        3.3759782142        1.3377774286
 C         -4.9687272428        2.3852735811        0.7133663395
 C         -4.3947850024        1.1831677787        0.3269759738
 H         -7.0334465635        1.1872400467       -0.5448700580
 H         -6.9112487611        0.0659991675        0.8199041240
 H         -7.1823152218       -0.5251417375       -0.8270453005
 H         -3.8057161932        0.2379725926       -2.1617966568
 H         -5.4090684000       -0.3806755087       -2.5465067269
 H         -5.1785143487        1.3491574514       -2.2444174957
 H         -6.4334650095       -2.3194867654       -0.2995555077
 H         -5.4445714397       -4.5286958891       -0.0723330135
 H         -2.9826182476       -4.7588624599        0.1246454405
 H         -1.5826955329       -2.7714140153        0.2566828304
 H         -1.1223637543       -1.5142874357        2.2039922204
 H          1.3379645415       -1.6973740916        2.4392907841
 H          2.2067712855        2.0750386918       -3.0063072132
 H         -0.2537721177        2.2696132861       -3.2916258611
 H         -1.7666134504        1.1753932926       -1.7011849231
 H          5.6397972646       -1.2941081898       -1.6715493422
 H          8.0887787830       -1.4836611167       -1.4127828569
 H          9.2130698518       -0.4042572055        0.4991863442
 H          7.8905973704        0.8674349931        2.1480599104
 H          5.4428778183        1.0612684160        1.8807730246
 H         -1.2598574527        1.8033089207        1.4762002787
 H         -2.3012550147        3.9299374170        2.0872435422
 H         -4.7059331563        4.3038382056        1.6174519469
 H         -6.0121153348        2.5721164545        0.5211991359
  61
        -96.95895192
 C         -6.6536600127        0.1554143586       -0.3115037934
 C         -5.1353735795        0.0944057798       -0.4928120744
 C         -4.8153690223        0.3542582112       -1.9817787073
 C         -4.5610774527       -1.2699781770       -0.1565658041
 C         -5.3129240615       -2.4310627967       -0.2497181168
 C         -4.7360142613       -3.6845044748       -0.1433402718
 C         -3.3671148332       -3.7893347064        0.0122378488
 C         -2.6001122886       -2.6487984439        0.1400377394
 C         -3.1882435504       -1.3843197571        0.1122616384
 N         -2.4303158631       -0.2297488343        0.3083521059
 C         -1.0334681790       -0.3010137465        0.4707380581
 C         -0.4718789998       -1.0336299239        1.4982409863
 C          0.9094112185       -1.1312899120        1.6379092857
 C          1.7513140840       -0.4956468585        0.7468537719
 C          1.2102066107        0.2848202723       -0.2951526069
 C          2.0602679196        0.9557960275       -1.1986118909
 C          1.5278665305        1.7257729768       -2.2118390095
 C          0.1438168491        1.8411243579       -2.3551937482
 C         -0.7011425688        1.1921111092       -1.4921593626
 C         -0.1955278129        0.4009967686       -0.4413678852
 C          3.5236681833        0.8260979532       -1.0798356106
 O          4.2979947004        1.3613593349       -1.8461738673
 N          3.9835052569        0.0284163364       -0.0422054355
 C          5.4046115863       -0.1393538686        0.0648803299
 C          5.9626032552       -1.3829417513       -0.1855546786
 C          7.3318541895       -1.5483323688       -0.0805593236
 C          8.1371998564       -0.4760994272        0.2635191492
 C          7.5731853363        0.7644578335        0.5076393527
 C          6.2035607729        0.9372430790        0.4135499362
 C          3.2066959355       -0.6338422041        0.8996901144
 O          3.7216272035       -1.2809489558        1.7890125925
 C         -3.0685695963        0.9672058505        0.6312919108
 C         -2.3673077994        1.9609309370        1.3155231640
 C         -2.9878244232        3.1396161138        1.6739049975
 C         -4.3250972624        3.3289801211        1.3776750512
 C         -5.0266347490        2.3379139035        0.7139367343
 C         -4.4206945900        1.1532126133        0.3225959644
 H         -7.0341368715        1.1246528232       -0.6200417955
 H         -6.9265953022       -0.0196217918        0.7265276602
 H         -7.1432165273       -0.5844446113       -0.9377955101
 H         -3.7476074101        0.2647529347       -2.1677311750
 H         -5.3295340241       -0.3731382874       -2.6062330001
 H         -5.1368352234        1.3542914822       -2.2659423089
 H         -6.3740950668       -2.3739845187       -0.4258444668
 H         -5.3494848145       -4.5688833042       -0.2177698015
 H         -2.8896332677       -4.7570797551        0.0399118237
 H         -1.5322357474       -2.7478304825        0.2486857739
 H         -1.1176559620       -1.5247343042        2.2107203512
 H          1.3431933766       -1.6997527019        2.4462811628
 H          2.2018746358        2.2306166297       -2.8872417923
 H         -0.2591882651        2.4449065149       -3.1539189544
 H         -1.7693673873        1.2906761218       -1.6055799823
 H          5.3253020827       -2.2117271613       -0.4543891387
 H          7.7688707853       -2.5167700418       -0.2720899739
 H          9.2059418463       -0.6078695133        0.3416526983
 H          8.1994732526        1.6019031882        0.7756111442
 H          5.7539687269        1.9001381883        0.6026942501
 H         -1.3315025398        1.8036641618        1.5741220437
 H         -2.4280963520        3.9010395291        2.1954099077
 H         -4.8236421246        4.2434127757        1.6598814510
 H         -6.0672276537        2.5105588464        0.4946455748
