  49
  -72.7986555812000       0.315994662614652      !
 O         -4.2267866859        0.5349777282        0.7614463046
 B         -2.8626463173        0.5291604749        0.8947928740
 O         -2.1782785108        1.6409102772        0.4990514606
 C         -2.0298267550       -0.6435576658        1.4644926356
 C         -2.5769904946       -1.8307337318        1.9755745303
 C         -1.8398783364       -2.6539368884        2.7894284861
 C         -0.4795419054       -2.3400826407        3.1022960673
 C          0.1227201911       -1.2671284690        2.5169104630
 C         -0.5879271114       -0.5483553593        1.5342262111
 Si         0.3485527014       -0.0002442698       -0.0134958850
 C          1.1318711143        1.6833155367        0.4396251273
 C          0.6825625948        2.4635959753        1.4958677560
 C          1.2711349192        3.6871410373        1.7662096302
 C          2.3184853664        4.1435816722        0.9841328191
 C          2.7751661425        3.3705280232       -0.0703391518
 C          2.1874864714        2.1462826517       -0.3368286606
 C          1.7823947522       -1.1564981373       -0.4466760893
 C          1.6610399328       -2.1401096086       -1.4295703907
 C          2.6928403476       -3.0186290569       -1.6948020616
 C          3.8779079374       -2.9394481109       -0.9784247933
 C          4.0179177265       -1.9695899729        0.0019352578
 C          2.9834970930       -1.0923084705        0.2624779599
 C         -0.7985050113        0.0860971844       -1.5107047239
 C         -0.7259571452        1.1345054529       -2.4197797731
 C         -1.5816545141        1.1948482665       -3.5052956380
 C         -2.5311348571        0.2045005038       -3.6963927991
 C         -2.6172178693       -0.8451573619       -2.7976963129
 C         -1.7559544402       -0.9015694508       -1.7161741394
 H         -4.6768608064       -0.2548171640        1.0536749879
 H         -2.7363577495        2.3321255259        0.1423166150
 H         -3.6314341903       -2.0344331569        1.8285789935
 H         -2.3084911475       -3.4919346165        3.2828091178
 H          0.0607271520       -2.9591206006        3.8018422817
 H          1.1636814433       -1.0492914835        2.7024642695
 H         -0.1397830716        2.1127684858        2.0989582118
 H          0.9121678933        4.2866798602        2.5904500471
 H          2.7795833120        5.0974867496        1.1955687747
 H          3.5919392485        3.7203957872       -0.6853941542
 H          2.5525184729        1.5430257930       -1.1545186701
 H          0.7445775990       -2.2040698230       -1.9981940425
 H          2.5789091232       -3.7688831478       -2.4647402627
 H          4.6862378354       -3.6252345787       -1.1853239539
 H          4.9401410372       -1.8990175702        0.5615927870
 H          3.1075188188       -0.3322569076        1.0203966293
 H          0.0060966752        1.9148807856       -2.2707705748
 H         -1.5110920266        2.0165330226       -4.2041176001
 H         -3.2022274066        0.2516461827       -4.5420576993
 H         -3.3569852410       -1.6200374351       -2.9421704617
 H         -1.8267962349       -1.7226679110       -1.0173569420
  49
  -72.7980974139000       0.175050685854097      !
 O         -2.8576116200       -1.4244530929       -0.7869418054
 B         -2.4747149759       -2.0166443384        0.3863362872
 O         -2.9145572132       -3.2847333577        0.6276370125
 C         -1.5844594747       -1.3313826821        1.4611064008
 C         -1.2924852102       -1.9918381784        2.6588728413
 C         -0.8648160859       -1.2953999395        3.7680306315
 C         -0.7104867509        0.1209979867        3.7170421652
 C         -0.8577188403        0.7765838241        2.5365045507
 C         -1.0189128621       -0.0036041159        1.3537597578
 Si         0.2373212115        0.3189980278       -0.0366609092
 C          1.2771755987        1.8306199670        0.4185551947
 C          1.2515035948        2.9912645210       -0.3469135688
 C          2.0131177753        4.0925122683        0.0016346686
 C          2.8189335877        4.0508064919        1.1270076258
 C          2.8557657478        2.9023608273        1.9015271731
 C          2.0897539183        1.8070245124        1.5491680276
 C          1.3465892958       -1.1445953184       -0.4586345335
 C          0.7813049546       -2.3629557985       -0.8401391823
 C          1.5738755987       -3.4657917630       -1.0951182545
 C          2.9517799182       -3.3771822750       -0.9776808706
 C          3.5293326674       -2.1752208269       -0.5980586312
 C          2.7349477691       -1.0753932829       -0.3381785021
 C         -0.8675200542        0.7627945739       -1.5306895547
 C         -1.9147451655        1.6719832197       -1.3940074900
 C         -2.6907907763        2.0292871756       -2.4822707379
 C         -2.4336254008        1.4762345929       -3.7258701278
 C         -1.3953366321        0.5715133836       -3.8754206928
 C         -0.6192931314        0.2191053591       -2.7854120422
 H         -2.4966130499       -0.5489549317       -0.9428466049
 H         -3.4640691754       -3.6361007199       -0.0742376133
 H         -1.5584210848       -3.0355244882        2.7343654097
 H         -0.7832921877       -1.7966471704        4.7200607260
 H         -0.5113071156        0.6683184300        4.6263328423
 H         -0.7203076455        1.8450644609        2.4675499347
 H          0.6267333667        3.0301487241       -1.2273448102
 H          1.9787543341        4.9857083332       -0.6055963242
 H          3.4143770146        4.9092988691        1.4007319872
 H          3.4816679765        2.8636668080        2.7815002099
 H          2.1124243078        0.9164775535        2.1606698295
 H         -0.2897204175       -2.4442139899       -0.9332256372
 H          1.1162747727       -4.4000011601       -1.3888931144
 H          3.5715499675       -4.2378700455       -1.1810004166
 H          4.6033549626       -2.0979538064       -0.5068664997
 H          3.1925229454       -0.1412691684       -0.0477255565
 H         -2.1181728508        2.1029273701       -0.4242939391
 H         -3.4959005588        2.7394081007       -2.3616404949
 H         -3.0402200068        1.7502416235       -4.5760779793
 H         -1.1897802562        0.1407210877       -4.8444362261
 H          0.1906261962       -0.4840365485       -2.9046018643
  49
  -72.7979094173000       0.143471804720924      !
 O         -4.2842645765        0.0562657410        0.5125889088
 B         -2.9680185701        0.3169534487        0.7911537185
 O         -2.5029942252        1.5689340489        0.5249654098
 C         -1.9817666387       -0.7090491463        1.4123557620
 C         -2.3653826024       -1.9573473409        1.9130653364
 C         -1.5499776715       -2.6597959600        2.7727630286
 C         -0.2905878224       -2.1236664922        3.1743842551
 C          0.1663410813       -0.9710035944        2.6148282665
 C         -0.5750762485       -0.4063955162        1.5465298084
 Si         0.3995937334        0.0455114737       -0.0172490986
 C          1.2059799612        1.7187788293        0.4158512188
 C          0.5308415989        2.6655448011        1.1781639329
 C          1.1063719104        3.8959006924        1.4435780824
 C          2.3657872692        4.1954272533        0.9515475062
 C          3.0442281607        3.2608090211        0.1869307235
 C          2.4675615310        2.0307153813       -0.0769984229
 C          1.7627170986       -1.1939086554       -0.4429951961
 C          1.6424367419       -2.0849093386       -1.5111001581
 C          2.6113495621       -3.0365639875       -1.7625461454
 C          3.7294758782       -3.1265423716       -0.9472957163
 C          3.8666514448       -2.2520371562        0.1195848584
 C          2.8954566346       -1.3022808205        0.3671270803
 C         -0.7877504375        0.1752305342       -1.4779269874
 C         -0.8067978873        1.2998506106       -2.2929750724
 C         -1.7015570230        1.4006984694       -3.3435415819
 C         -2.5956202555        0.3726899623       -3.5943079302
 C         -2.5878758375       -0.7549795047       -2.7908723741
 C         -1.6905549332       -0.8493619668       -1.7421443385
 H         -4.5841694814       -0.8285276340        0.7099950866
 H         -3.1623659909        2.1444385258        0.1357482729
 H         -3.3711704102       -2.3179622000        1.7290930381
 H         -1.9115092643       -3.5590786717        3.2473167989
 H          0.2792136553       -2.6264004047        3.9412306715
 H          1.1257207939       -0.5593961965        2.8888485180
 H         -0.4551032260        2.4343958141        1.5496875337
 H          0.5714824278        4.6240632751        2.0364332936
 H          2.8178441875        5.1541009955        1.1611900228
 H          4.0249771223        3.4903028832       -0.2050131686
 H          3.0004245103        1.3058500355       -0.6742025472
 H          0.7794777963       -2.0176925409       -2.1572523286
 H          2.4994651098       -3.7120879817       -2.5988617624
 H          4.4881858634       -3.8698024978       -1.1432149643
 H          4.7368643962       -2.3132653945        0.7580516151
 H          3.0175154607       -0.6212020365        1.1966846897
 H         -0.1160674427        2.1071505276       -2.0965738315
 H         -1.7050357037        2.2833706128       -3.9676598815
 H         -3.2974511350        0.4512190467       -4.4120956763
 H         -3.2832049614       -1.5601971356       -2.9836347921
 H         -1.6877048751       -1.7303939975       -1.1166923329
  49
  -72.7978969683000       0.141594178131061      !
 O         -1.4503638453       -2.6361258715       -0.7065512844
 B         -1.3104375426       -2.7381083082        0.6536989800
 O         -1.2469664823       -3.9850706275        1.1971405815
 C         -1.2633015404       -1.5062968786        1.6008898484
 C         -1.2449226417       -1.6586116505        2.9923107022
 C         -1.5910544219       -0.6144149884        3.8183391770
 C         -1.9509519890        0.6560442652        3.2731442208
 C         -1.8591916545        0.8738482828        1.9343763985
 C         -1.2732159790       -0.1386045795        1.1306510582
 Si         0.0775872705        0.4082736320       -0.0803515288
 C          1.0839866717        1.9232184972        0.4166842821
 C          2.3352389891        1.8027484062        1.0240297742
 C          3.0317097888        2.9166096062        1.4491962398
 C          2.4900897515        4.1825953377        1.2833426127
 C          1.2473376996        4.3216351029        0.6852705586
 C          0.5539824316        3.2055649067        0.2601948961
 C          1.2222442049       -1.0588094106       -0.4044754190
 C          1.7198439888       -1.7992796005        0.6625038411
 C          2.5430933469       -2.8900102774        0.4487409926
 C          2.8827439144       -3.2574969876       -0.8423784541
 C          2.3951415958       -2.5292060446       -1.9147326624
 C          1.5703887923       -1.4406664664       -1.6945678145
 C         -0.9144445392        0.8513534933       -1.6546418759
 C         -0.2648506219        1.5139786454       -2.6899044915
 C         -0.9281530922        1.8176796200       -3.8652874092
 C         -2.2593448625        1.4670274598       -4.0205101532
 C         -2.9216872819        0.8169165861       -2.9931649457
 C         -2.2523695042        0.5106033658       -1.8209679202
 H         -1.4465346308       -1.7398280426       -1.0406134551
 H         -1.2794876538       -4.6844930228        0.5434653344
 H         -1.0996114041       -2.6527717966        3.3882816494
 H         -1.7160693457       -0.7818721007        4.8768997453
 H         -2.3110110538        1.4331541541        3.9302576637
 H         -2.0886599903        1.8387477540        1.5077591584
 H          2.7659055829        0.8198730939        1.1485685059
 H          4.0022519093        2.8016103096        1.9102984072
 H          3.0339146031        5.0543487664        1.6153435355
 H          0.8208787038        5.3054969843        0.5494866904
 H         -0.4095094791        3.3229055229       -0.2156360392
 H          1.4519359102       -1.5205387951        1.6701624635
 H          2.9180019821       -3.4562091857        1.2891281529
 H          3.5234881410       -4.1102343626       -1.0132023718
 H          2.6543427163       -2.8144534188       -2.9242909167
 H          1.1856462112       -0.8835462743       -2.5364288080
 H          0.7697530697        1.7989367080       -2.5668545910
 H         -0.4071829011        2.3308366642       -4.6605964761
 H         -2.7790931271        1.7043388873       -4.9368510265
 H         -3.9622121368        0.5482328168       -3.1039129832
 H         -2.7800545831        0.0173490803       -1.0168898313
  49
  -72.7977085063000       0.115993661724577      !
 O         -4.3079854692       -0.2922885372        0.4753134986
 B         -3.0332322196        0.1281281706        0.7517169818
 O         -2.7170349908        1.4184281825        0.4507983133
 C         -1.9437853317       -0.7569964718        1.4176999209
 C         -2.1847716929       -2.0146833280        1.9766099245
 C         -1.3063122941       -2.5706814425        2.8835163150
 C         -0.1441489614       -1.8552907704        3.2944413875
 C          0.1822315691       -0.6856748391        2.6827650506
 C         -0.5816318433       -0.2945106759        1.5501768147
 Si         0.4088124980        0.0764960250       -0.0266680097
 C          1.2373100717        1.7339928608        0.4088988101
 C          0.4552088713        2.8014662457        0.8408012783
 C          1.0314842268        4.0276755469        1.1209597099
 C          2.3988101277        4.2008798683        0.9808717531
 C          3.1857106115        3.1443376267        0.5529131119
 C          2.6071207860        1.9194933562        0.2690719468
 C          1.7197569164       -1.2188345993       -0.4562556348
 C          1.7002020346       -1.9114126787       -1.6680050585
 C          2.6256153479       -2.8996512385       -1.9430662504
 C          3.5956110225       -3.2267216517       -1.0084596741
 C          3.6278882258       -2.5547283517        0.2034424623
 C          2.7011360550       -1.5672524333        0.4740724104
 C         -0.7797810655        0.2331147839       -1.4836678620
 C         -0.8418005242        1.3939841831       -2.2435874694
 C         -1.7347702157        1.5078373482       -3.2943839274
 C         -2.5835163346        0.4572075366       -3.6004463391
 C         -2.5306642433       -0.7077744696       -2.8534687356
 C         -1.6354228989       -0.8151169200       -1.8045085177
 H         -4.5055272291       -1.1983468705        0.7038323433
 H         -3.4407947721        1.8965479710        0.0442106752
 H         -3.1367271560       -2.5033150246        1.8013990945
 H         -1.5638426766       -3.4867163066        3.3925993385
 H          0.4461398758       -2.2319000467        4.1164333624
 H          1.0569831044       -0.1214621143        2.9701990702
 H         -0.6094899017        2.6603809588        0.9498773067
 H          0.4147821875        4.8509499258        1.4521562652
 H          2.8510750088        5.1563817778        1.2040915957
 H          4.2523108357        3.2756465599        0.4377564705
 H          3.2229144939        1.0998370046       -0.0698998691
 H          0.9526159227       -1.6598038033       -2.4060011040
 H          2.5948129772       -3.4178086038       -2.8911429686
 H          4.3198166856       -3.9989471857       -1.2222211491
 H          4.3802004831       -2.8045577765        0.9383614916
 H          2.7349162889       -1.0526873313        1.4224957363
 H         -0.1860439967        2.2186567866       -2.0053294383
 H         -1.7724754150        2.4190618846       -3.8746262260
 H         -3.2845322481        0.5461488223       -4.4178508022
 H         -3.1898345960       -1.5310112617       -3.0901276914
 H         -1.5955270140       -1.7255722899       -1.2237154101
  49
  -72.7969966241000       5.461046207717037E-002 !
 O         -2.5990135789       -1.6621264057       -0.9771326999
 B         -2.3920351137       -2.1654505723        0.2780498446
 O         -2.8588547022       -3.4212818316        0.5416622548
 C         -1.6542168787       -1.4084039380        1.4174195858
 C         -1.5687945952       -1.9848816780        2.6969527382
 C         -1.3727105586       -1.1984053739        3.8031801157
 C         -1.2046025252        0.2171998539        3.6707256917
 C         -1.1206969765        0.7791796337        2.4363726912
 C         -1.0864196406       -0.0808413253        1.3076288588
 Si         0.2331765419        0.2837103837        0.0040241601
 C          1.2263782798        1.8116541896        0.5105292113
 C          2.2727945518        1.6967574406        1.4232914174
 C          2.9876452533        2.8051399829        1.8349079729
 C          2.6630992157        4.0606392418        1.3450416492
 C          1.6240894644        4.1941094797        0.4395273095
 C          0.9155783198        3.0795771251        0.0278106539
 C          1.4250531427       -1.1166027979       -0.4231387244
 C          1.0634437755       -2.4536624602       -0.2717910134
 C          1.9497240114       -3.4700188259       -0.5760630754
 C          3.2201516670       -3.1711255194       -1.0428814517
 C          3.5984106960       -1.8466386573       -1.1942491038
 C          2.7111413724       -0.8333175646       -0.8843796629
 C         -0.8016121370        0.7366381904       -1.5454369253
 C         -0.4167104116        0.2937018064       -2.8055619697
 C         -1.1288395965        0.6634156271       -3.9329558521
 C         -2.2389335813        1.4832865967       -3.8154958023
 C         -2.6358079463        1.9304126775       -2.5660282813
 C         -1.9240051131        1.5552151406       -1.4406234578
 H         -2.2350944699       -0.7893595761       -1.1402131874
 H         -3.3002719933       -3.8274125105       -0.2050534796
 H         -1.8292798770       -3.0276380313        2.7992421275
 H         -1.4627089857       -1.6227828713        4.7910588040
 H         -1.1460825684        0.8301585593        4.5571596683
 H         -0.9278633960        1.8350024768        2.3178947069
 H          2.5256749195        0.7199466705        1.8104844607
 H          3.7982368525        2.6938523018        2.5406279895
 H          3.2175172952        4.9295142461        1.6676361198
 H          1.3667481599        5.1698623924        0.0523319904
 H          0.1121650048        3.1920374179       -0.6855881849
 H          0.0793185843       -2.6943439888        0.0993003729
 H          1.6498606486       -4.5005743793       -0.4489015296
 H          3.9117180217       -3.9647934012       -1.2844067862
 H          4.5876969476       -1.6052424952       -1.5563554115
 H          3.0124097768        0.1974397479       -1.0050479295
 H          0.4489525967       -0.3445280792       -2.8987381552
 H         -0.8167434865        0.3129109339       -4.9058321760
 H         -2.7946418044        1.7721740846       -4.6950345678
 H         -3.5000443118        2.5712253354       -2.4694602660
 H         -2.2400572963        1.8974453905       -0.4657750418
  49
  -72.7962348538000       2.438880158885432E-002 !
 O         -2.1333841150       -2.1612682043       -0.8380010526
 B         -2.0288570716       -2.4257179244        0.5034436724
 O         -2.3368500389       -3.6859098070        0.9285226866
 C         -1.5793084054       -1.3794692743        1.5557611170
 C         -1.6447585310       -1.6745045186        2.9273391224
 C         -1.7194892765       -0.6661726513        3.8546358094
 C         -1.7026828523        0.7078158238        3.4403342224
 C         -1.4922546732        1.0228568312        2.1362006973
 C         -1.1541080281       -0.0252726795        1.2391929515
 Si         0.2081830471        0.3081762251       -0.0052921783
 C          1.2656439624        1.8154112396        0.4498441177
 C          1.7540749755        1.9662563307        1.7450698017
 C          2.5172639833        3.0638550432        2.0971557270
 C          2.8084674941        4.0362309898        1.1542907451
 C          2.3314688040        3.9018104674       -0.1387893313
 C          1.5670026569        2.8018419667       -0.4838121220
 C          1.3371082974       -1.1599397961       -0.3797327385
 C          1.3002737756       -2.3311803847        0.3669533567
 C          2.1378038289       -3.3913618601        0.0687358513
 C          3.0363780880       -3.2927098437       -0.9807545602
 C          3.0965619049       -2.1258729323       -1.7248415929
 C          2.2555863107       -1.0704525129       -1.4235919033
 C         -0.7864801020        0.7719521960       -1.5794328044
 C         -1.5591917310        1.9288030263       -1.6062223902
 C         -2.2787457870        2.2765370012       -2.7343626771
 C         -2.2468609044        1.4614719258       -3.8551485636
 C         -1.4886986847        0.3027171738       -3.8397899099
 C         -0.7690074624       -0.0416846131       -2.7087909090
 H         -1.8891142598       -1.2712049659       -1.0942107341
 H         -2.5940544094       -4.2710183523        0.2151720587
 H         -1.8012213411       -2.7031058598        3.2172113866
 H         -1.9213539920       -0.8954077917        4.8893562885
 H         -1.8612065253        1.4830072266        4.1743604344
 H         -1.4176584224        2.0528314013        1.8206106046
 H          1.5228786093        1.2123255158        2.4839141432
 H          2.8846263062        3.1643607411        3.1082729796
 H          3.4024849063        4.8960972109        1.4268579487
 H          2.5552692403        4.6568629289       -0.8788482072
 H          1.1942548709        2.7060008906       -1.4935712337
 H          0.5989928517       -2.4128104263        1.1828306175
 H          2.0907209549       -4.2964586628        0.6569146663
 H          3.6889691430       -4.1202658123       -1.2174165589
 H          3.7993507415       -2.0404290564       -2.5412775751
 H          2.3086783178       -0.1612795239       -2.0055054949
 H         -1.5837084263        2.5689166797       -0.7370430250
 H         -2.8649512956        3.1838725411       -2.7418692551
 H         -2.8112171966        1.7291466988       -4.7358782733
 H         -1.4562048931       -0.3351649148       -4.7109741899
 H         -0.1740702738       -0.9418778626       -2.7063313817
  49
  -72.7958349530000       1.597381967862168E-002 !
 O         -2.5596324459       -1.7030128967       -0.8684175666
 B         -2.3414561040       -2.1730495028        0.3990730247
 O         -2.7895945258       -3.4298070949        0.6935593494
 C         -1.6047701336       -1.3814798872        1.5141910962
 C         -1.5241836265       -1.9176020510        2.8139478957
 C         -1.3323262025       -1.0955781399        3.8923135081
 C         -1.1484233137        0.3142253687        3.7125899645
 C         -1.0555780422        0.8343451892        2.4595983588
 C         -1.0357550639       -0.0582807156        1.3602764870
 Si         0.2306621942        0.2846987469        0.0029647117
 C          1.2963688164        1.7834153481        0.4423116662
 C          0.9185251387        3.0756945140        0.0865283967
 C          1.6816265550        4.1693724526        0.4527895545
 C          2.8437602777        3.9912764606        1.1846137019
 C          3.2360156432        2.7117289979        1.5462402014
 C          2.4670125941        1.6236559071        1.1812941066
 C          1.3624338179       -1.1476530463       -0.4791845627
 C          1.0770914280       -2.4638812855       -0.1284973980
 C          1.9259731584       -3.4958984548       -0.4836653578
 C          3.0825784255       -3.2314031356       -1.1996053532
 C          3.3861499717       -1.9259278878       -1.5501495622
 C          2.5356658019       -0.8973686410       -1.1905105721
 C         -0.8650523186        0.7639568602       -1.4995484958
 C         -1.9968182894        1.5594350172       -1.3375497351
 C         -2.7508412850        1.9508471279       -2.4296291643
 C         -2.3873983514        1.5434295842       -3.7024494134
 C         -1.2686985395        0.7458610056       -3.8766092683
 C         -0.5149682430        0.3589612240       -2.7825477488
 H         -2.2142657342       -0.8253671137       -1.0449763774
 H         -3.2219412768       -3.8571003627       -0.0468293904
 H         -1.7861189975       -2.9563214139        2.9487590264
 H         -1.4266455098       -1.4852231252        4.8940397662
 H         -1.0723106641        0.9543883425        4.5779342548
 H         -0.8403335462        1.8818100934        2.3089592688
 H          0.0190274028        3.2228601899       -0.4932298610
 H          1.3715594115        5.1639411579        0.1652402794
 H          3.4414995982        4.8438725151        1.4710296046
 H          4.1428120343        2.5656605107        2.1153252747
 H          2.7750244941        0.6279842648        1.4667597160
 H          0.1806144472       -2.6753405318        0.4337303026
 H          1.6863869127       -4.5107846586       -0.2004037109
 H          3.7447912555       -4.0372389065       -1.4798929223
 H          4.2881664213       -1.7111805418       -2.1051807726
 H          2.7800147951        0.1195771277       -1.4630788700
 H         -2.2891819558        1.8687135174       -0.3446659726
 H         -3.6221421235        2.5736418110       -2.2885420334
 H         -2.9756375928        1.8451818645       -4.5561342923
 H         -0.9824761957        0.4252147465       -4.8675516424
 H          0.3562360479       -0.2626223697       -2.9208052918
  49
  -72.7956345875000       1.292192361004308E-002 !
 O         -2.0080124034       -2.3009785211       -0.7774374696
 B         -1.8271930446       -2.5495510718        0.5596122518
 O         -1.9931663662       -3.8302761572        0.9992945880
 C         -1.4514136381       -1.4501315114        1.5855801863
 C         -1.4372779080       -1.7183615891        2.9615271030
 C         -1.5352588419       -0.6986929307        3.8770677123
 C         -1.6359515415        0.6635100198        3.4409701345
 C         -1.5161278201        0.9661371555        2.1233483153
 C         -1.1470276957       -0.0743249144        1.2263789112
 Si         0.1813176615        0.3222355789       -0.0412293167
 C          1.2404825845        1.8201228986        0.4373181599
 C          1.4773698082        2.8665416432       -0.4488540657
 C          2.2284790264        3.9649126301       -0.0718198947
 C          2.7587459794        4.0371656812        1.2054482122
 C          2.5340168626        3.0037669150        2.1004597021
 C          1.7814991851        1.9094510849        1.7179026652
 C          1.3159385763       -1.1248510913       -0.4753582568
 C          1.4399656522       -2.2294070462        0.3589198853
 C          2.2804502162       -3.2781097755        0.0300822983
 C          3.0198355741       -3.2343420745       -1.1402569394
 C          2.9192918057       -2.1332062021       -1.9743839470
 C          2.0765949821       -1.0884077751       -1.6410920549
 C         -0.8876572291        0.8171205960       -1.5537551980
 C         -1.6120079135        2.0047348822       -1.5370587103
 C         -2.3878188573        2.3796209223       -2.6183641913
 C         -2.4617662787        1.5617597213       -3.7347379415
 C         -1.7529970662        0.3723619791       -3.7616325150
 C         -0.9768655853        0.0009348267       -2.6775373354
 H         -1.8685572360       -1.3883360872       -1.0315691579
 H         -2.2172915961       -4.4435934623        0.2984756259
 H         -1.5104566756       -2.7493216521        3.2754106188
 H         -1.6744319097       -0.9216721950        4.9233722815
 H         -1.8216568387        1.4391614272        4.1682636698
 H         -1.5422206112        1.9911429664        1.7849186982
 H          1.0654374511        2.8182087865       -1.4465718770
 H          2.4005854102        4.7676071235       -0.7745361497
 H          3.3430500386        4.8954543224        1.5026605648
 H          2.9443148947        3.0547094549        3.0986357273
 H          1.6011959649        1.1083312836        2.4203031812
 H          0.8609254579       -2.2707670816        1.2679099646
 H          2.3592661219       -4.1315020888        0.6879720617
 H          3.6751227940       -4.0528157561       -1.3999223045
 H          3.4999517060       -2.0892199084       -2.8848515867
 H          2.0088873371       -0.2284069101       -2.2921583088
 H         -1.5554673912        2.6473649310       -0.6714123584
 H         -2.9359294593        3.3100983481       -2.5918917448
 H         -3.0696302069        1.8505043467       -4.5790627867
 H         -1.8036399240       -0.2690124631       -4.6294104477
 H         -0.4213626723       -0.9233705250       -2.7112803101
