  46
  -75.1529860429000       0.287997085729395      !
 N         -8.1439848415        0.0005373174       -0.0984139215
 C         -6.9909724457       -0.0014064003       -0.0729763361
 C         -5.5923843006        0.0031039828       -0.0458734351
 C         -4.8582728686       -0.3534859548       -1.1952855079
 C         -3.4868926978       -0.3545320542       -1.1649102831
 C         -2.8127867804        0.0034161996        0.0081823035
 N         -1.3892257708        0.0023488012        0.0343466124
 C         -0.7121962251        1.1960251779        0.0241593724
 C         -1.3852304780        2.4212375277       -0.0288615626
 C         -0.6903644229        3.6074927016       -0.0018239216
 C          0.7084445250        3.6035407689        0.0858000450
 C          1.3968063522        2.4140195866        0.1092148332
 C          0.7165370234        1.1919777854        0.0567459628
 N          1.3890208780       -0.0035342241        0.0348586693
 C          2.8127098137       -0.0045148856        0.0078906056
 C          3.5328423523       -0.3517530703        1.1566224753
 C          4.9046200642       -0.3487520662        1.1328330691
 C          5.5922000731       -0.0004982297       -0.0470896532
 C          6.9905570798        0.0056530121       -0.0740529587
 N          8.1436126684        0.0025164150       -0.0962952336
 C          4.8572087866        0.3442383743       -1.1995023040
 C          3.4857354626        0.3436439619       -1.1686300412
 C          0.7120838447       -1.1971924178        0.0255753359
 C          1.3856510419       -2.4221825068       -0.0244053826
 C          0.6911291192       -3.6086277382        0.0034019171
 C         -0.7077990760       -3.6047554807        0.0892879058
 C         -1.3965485706       -2.4154119605        0.1107933806
 C         -0.7166690658       -1.1931850907        0.0571852549
 C         -3.5320661852        0.3609225685        1.1543665969
 C         -4.9037974342        0.3593713155        1.1311294326
 H         -5.3875743566       -0.6253756078       -2.0957110755
 H         -2.9163763247       -0.6252964732       -2.0411080683
 H         -2.4620866585        2.4245601946       -0.0905068351
 H         -1.2250669884        4.5426487034       -0.0409981370
 H          1.2478065073        4.5357916915        0.1295108772
 H          2.4738338101        2.4103191444        0.1691261631
 H          2.9977135123       -0.6148986760        2.0571830609
 H          5.4694244328       -0.6089984602        2.0149372082
 H          5.3857781918        0.6070335108       -2.1029082067
 H          2.9143252265        0.6055869471       -2.0470019247
 H          2.4626100812       -2.4249495480       -0.0847315316
 H          1.2260499298       -4.5437777336       -0.0351738846
 H         -1.2471064099       -4.5371306905        0.1320136337
 H         -2.4736188603       -2.4121703363        0.1697115323
 H         -2.9963297467        0.6318357062        2.0522741009
 H         -5.4678573700        0.6285788261        2.0109909101
  46
  -75.1527504067000       0.224438415211611      !
 N         -8.0772906533       -0.0028499217       -0.7095343075
 C         -6.9357263914       -0.0045721159       -0.5423796278
 C         -5.5510847552       -0.0026788957       -0.3418067300
 C         -4.6804750421       -0.3612491598       -1.3913763640
 C         -3.3234949924       -0.3588771983       -1.1919191825
 C         -2.7985525559        0.0061784541        0.0533128083
 N         -1.3875628988        0.0093506405        0.2407465070
 C         -0.7089357201        1.2028583866        0.2752443797
 C         -1.3731361710        2.4313027703        0.2440013545
 C         -0.6699751836        3.6133011171        0.2982864734
 C          0.7292718990        3.5984171539        0.3784521397
 C          1.4099005315        2.4060528172        0.3701474696
 C          0.7197576777        1.1879049743        0.3048523211
 N          1.3876156286       -0.0077386391        0.2409879951
 C          2.7985977680       -0.0050986724        0.0533471872
 C          3.6546548241       -0.3565028629        1.1037928370
 C          5.0134328144       -0.3531969192        0.9103308945
 C          5.5508067405        0.0012390281       -0.3431944635
 C          6.9352354345        0.0029408304       -0.5453112083
 N          8.0776443853       -0.0058101101       -0.7060781495
 C          4.6799952419        0.3570246351       -1.3932665031
 C          3.3230223007        0.3561019736       -1.1930387644
 C          0.7090077384       -1.2012043384        0.2774257107
 C          1.3732382842       -2.4297015752        0.2483655279
 C          0.6701123770       -3.6116395585        0.3045887909
 C         -0.7291287944       -3.5966541507        0.3848282160
 C         -1.4097892314       -2.4043159417        0.3744452950
 C         -0.7197130521       -1.1862069912        0.3068713642
 C         -3.6543937278        0.3604098368        1.1031213805
 C         -5.0131152384        0.3557866440        0.9103966459
 H         -5.0940444309       -0.6353386497       -2.3499535419
 H         -2.6487145852       -0.6317080564       -1.9902921196
 H         -2.4497569397        2.4448991487        0.1822404503
 H         -1.1989269449        4.5522583522        0.2832211978
 H          1.2742547304        4.5265999673        0.4392958332
 H          2.4874702850        2.3919077616        0.4203787550
 H          3.2349011495       -0.6216721019        2.0631661135
 H          5.6826927147       -0.6192179498        1.7144368059
 H          5.0932296567        0.6282254210       -2.3527371725
 H          2.6479938373        0.6271982127       -1.9917804692
 H          2.4498940770       -2.4434347422        0.1868312709
 H          1.1990691393       -4.5506073167        0.2914148870
 H         -1.2740732455       -4.5247423518        0.4474422626
 H         -2.4873405000       -2.3901751971        0.4246846407
 H         -3.2343941827        0.6286448762        2.0615158246
 H         -5.6820972853        0.6243009047        1.7139111533
  46
  -75.1525075130000       0.173568526950279      !
 N         -8.0629303588       -0.0000965225        0.7765097627
 C         -6.9238877941        0.0014827370        0.5929784559
 C         -5.5419581248        0.0002115282        0.3734252121
 C         -5.0257604148        0.2276833274       -0.9177227419
 C         -3.6696220107        0.2283088498       -1.1296136616
 C         -2.7961601382        0.0011985934       -0.0599521707
 N         -1.3866556743       -0.0003680029       -0.2657059784
 C         -0.7134615078        1.1924970654       -0.3596492030
 C         -1.3904974789        2.4160344733       -0.3975019754
 C         -0.6970099186        3.6015820773       -0.4638273877
 C          0.7037444541        3.6001609653       -0.4648682211
 C          1.3946741436        2.4132441290       -0.3990091104
 C          0.7148836328        1.1911470072       -0.3598376494
 N          1.3862327040       -0.0024313350       -0.2653243877
 C          2.7960013880       -0.0011029780       -0.0598635832
 C          3.2984027100       -0.2108190238        1.2288919132
 C          4.6528597588       -0.2054972717        1.4469237508
 C          5.5416498524        0.0059341086        0.3732501522
 C          6.9234900711        0.0128524327        0.5932045063
 N          8.0627012158        0.0190320593        0.7749795235
 C          5.0254433566        0.2095903456       -0.9217737167
 C          3.6692460242        0.2064106327       -1.1335283290
 C          0.7143758852       -1.1967613193       -0.2769839510
 C          1.3928006114       -2.4204446517       -0.2733142808
 C          0.6994649302       -3.6068752278       -0.2769326333
 C         -0.7040792740       -3.6058931829       -0.2787671387
 C         -1.3960121004       -2.4187851339       -0.2763409381
 C         -0.7161797010       -1.1956238407       -0.2777742928
 C         -3.2987366685       -0.2316577336        1.2249955245
 C         -4.6531228317       -0.2304001766        1.4431666960
 H         -5.7089703564        0.3993166989       -1.7356510824
 H         -3.2655729320        0.3978220142       -2.1168892805
 H         -2.4687878706        2.4187336733       -0.3747280687
 H         -1.2346341285        4.5349922293       -0.5051425776
 H          1.2433066269        4.5324312538       -0.5070994493
 H          2.4730263497        2.4131911793       -0.3778178462
 H          2.6092913545       -0.3714822138        2.0452034564
 H          5.0500897607       -0.3615400522        2.4382920644
 H          5.7086753655        0.3659702995       -1.7427234967
 H          3.2648922748        0.3577943848       -2.1236326117
 H          2.4717373489       -2.4185813268       -0.2788874932
 H          1.2358892268       -4.5418034513       -0.2832400643
 H         -1.2417806589       -4.5400929203       -0.2868622732
 H         -2.4749014345       -2.4159966647       -0.2846888176
 H         -2.6096131914       -0.4068009184        2.0383368824
 H         -5.0501259567       -0.4032234550        2.4318508337
  46
  -75.1522328433000       0.129790086967625      !
 N         -8.1158095823        0.0099909736       -0.4762214690
 C         -6.9673652667        0.0062898292       -0.3659371801
 C         -5.5748634958        0.0045066666       -0.2318854297
 C         -4.7539367274       -0.2886607052       -1.3400234635
 C         -3.3886973778       -0.2898155820       -1.2052781676
 C         -2.8069779088        0.0048153932        0.0331299092
 N         -1.3887148930        0.0033505962        0.1598566835
 C         -0.7130873744        1.1965058573        0.2325562048
 C         -1.3862058173        2.4226833331        0.2523918630
 C         -0.6897120723        3.6069513250        0.3112384853
 C          0.7111758610        3.6021655076        0.3285363026
 C          1.3988996786        2.4127476489        0.2804721026
 C          0.7155287727        1.1925727364        0.2402287463
 N          1.3863229848       -0.0014173235        0.1639173193
 C          2.8061946394       -0.0020700184        0.0353536328
 C          3.6146510980        0.1397444482        1.1684379802
 C          4.9811149074        0.1371041820        1.0387137743
 C          5.5721926168       -0.0062565464       -0.2322786548
 C          6.9648271856       -0.0066134560       -0.3681689526
 N          8.1129125229       -0.0048713655       -0.4805314542
 C          4.7476934564       -0.1494306946       -1.3666858672
 C          3.3821997509       -0.1487748025       -1.2307374438
 C          0.7128026097       -1.1949508763        0.1568974193
 C          1.3910754561       -2.4181229068        0.1466406900
 C          0.6980536195       -3.6052055922        0.1440512747
 C         -0.7047891112       -3.6036408578        0.1525048204
 C         -1.3965677889       -2.4164130707        0.1597387364
 C         -0.7174270784       -1.1924141855        0.1583860269
 C         -3.6128777492        0.2949962705        1.1401842470
 C         -4.9791906427        0.2948175947        1.0119829917
 H         -5.2118717320       -0.5103244428       -2.2919304147
 H         -2.7517703933       -0.5122260075       -2.0490122653
 H         -2.4640864984        2.4294156624        0.2188815370
 H         -1.2251564511        4.5421433874        0.3348875309
 H          1.2525775125        4.5334143210        0.3688654603
 H          2.4774869440        2.4076171803        0.2727339507
 H          3.1524332816        0.2476025004        2.1386801008
 H          5.6148971961        0.2435631168        1.9059992844
 H          5.2026202457       -0.2590248960       -2.3393185654
 H          2.7420162449       -0.2587629748       -2.0938188957
 H          2.4699089452       -2.4165706676        0.1498458264
 H          1.2349729639       -4.5397442482        0.1421824706
 H         -1.2431941463       -4.5374769536        0.1591076165
 H         -2.4751593202       -2.4155230674        0.1768791321
 H         -3.1483615196        0.5114852380        2.0910872087
 H         -5.6099555820        0.5134819084        1.8601939707
  46
  -75.1519060234000       9.184288059961786E-002 !
 N         -7.8028883809       -0.0293435323       -1.5716296115
 C         -6.7142259784       -0.0144487631       -1.1909341039
 C         -5.3868367783       -0.0093634274       -0.7477411750
 C         -4.3413445008       -0.3181415890       -1.6415517720
 C         -3.0411163787       -0.3107741966       -1.2064394654
 C         -2.7465396574        0.0109874322        0.1240091130
 N         -1.3827761876        0.0210250866        0.5307512467
 C         -0.7086167596        1.2145299709        0.6250240337
 C         -1.3709475884        2.4433738444        0.6425437084
 C         -0.6631353546        3.6210448595        0.7275025942
 C          0.7384137045        3.6018912030        0.7729558236
 C          1.4164340505        2.4100507451        0.7126044234
 C          0.7201408710        1.1956394763        0.6405868898
 N          1.3828389930        0.0009337734        0.5317176169
 C          2.7470897726        0.0062009554        0.1258642379
 C          3.7762359334       -0.2897901629        1.0264308141
 C          5.0799951250       -0.2993495966        0.5953620302
 C          5.3859104953       -0.0135643246       -0.7494540555
 C          6.7118618817       -0.0333562892       -1.1966597370
 N          7.8029861924       -0.0632981189       -1.5696121648
 C          4.3426352672        0.2950274646       -1.6456774400
 C          3.0429429891        0.3072140765       -1.2089223009
 C          0.7087299941       -1.1925936846        0.6252051472
 C          1.3712835773       -2.4213455507        0.6423734872
 C          0.6637455924       -3.5991838302        0.7261536778
 C         -0.7378528882       -3.5801395514        0.7721748972
 C         -1.4159981829       -2.3884160115        0.7129825925
 C         -0.7199930960       -1.1737503832        0.6404074003
 C         -3.7774594090        0.3117486817        1.0209352695
 C         -5.0817404513        0.3018342663        0.5915254009
 H         -4.5756827528       -0.5580950456       -2.6674918971
 H         -2.2323835963       -0.5457237480       -1.8835092031
 H         -2.4483923123        2.4606525259        0.5966191163
 H         -1.1894520676        4.5611222854        0.7585738769
 H          1.2855570943        4.5278088293        0.8480854849
 H          2.4952158150        2.3893602526        0.7320643194
 H          3.5351529961       -0.5022536949        2.0577149577
 H          5.8826481992       -0.5245671714        1.2812407813
 H          4.5781815001        0.5185839954       -2.6750228590
 H          2.2357537653        0.5404120943       -1.8883955313
 H          2.4487583210       -2.4384343853        0.5974272606
 H          1.1902211194       -4.5391600389        0.7567453513
 H         -1.2849235436       -4.5060748968        0.8474299307
 H         -2.4947184412       -2.3682562779        0.7337931604
 H         -3.5377717569        0.5404111859        2.0490641679
 H         -5.8857756219        0.5288587571        1.2751794483
  46
  -75.1513671093000       5.192514575901221E-002 !
 N         -7.9115702560       -0.0848725214        1.2994620904
 C         -6.8013558768       -0.0389206177        0.9889101396
 C         -5.4516866642       -0.0187328417        0.6197619307
 C         -5.0726934596       -0.2492163927       -0.7171785604
 C         -3.7467357302       -0.2351205472       -1.0730263068
 C         -2.7674213207        0.0094512678       -0.1037529160
 N         -1.3842948961        0.0118284142       -0.4414237838
 C         -0.7147860158        1.2064551094       -0.4869300908
 C         -1.3941046787        2.4299183361       -0.4973925295
 C         -0.7004681237        3.6154027125       -0.5238954229
 C          0.7039609468        3.6148384130       -0.5260248264
 C          1.3964253032        2.4284704383       -0.5016585280
 C          0.7158575584        1.2060794051       -0.4893495551
 N          1.3843613395        0.0107993748       -0.4458562571
 C          2.7675463169        0.0086121595       -0.1070883324
 C          3.1315427682        0.2286252358        1.2262666247
 C          4.4540503837        0.2184559812        1.5887613223
 C          5.4511207112       -0.0079105340        0.6181214260
 C          6.8000265058       -0.0219555338        0.9902517814
 N          7.9095178542       -0.0444004951        1.3045561900
 C          5.0754501359       -0.2166130282       -0.7230711160
 C          3.7495560997       -0.2086049673       -1.0798370488
 C          0.7135209824       -1.1815245750       -0.5669868832
 C          1.3923699173       -2.4033264029       -0.6226630074
 C          0.7001857085       -3.5882699616       -0.7079162726
 C         -0.7003568769       -3.5883874745       -0.7037685818
 C         -1.3927388276       -2.4036439769       -0.6154861569
 C         -0.7145147822       -1.1814176800       -0.5643106953
 C         -3.1350217977        0.2522345635        1.2247002934
 C         -4.4577636133        0.2362065965        1.5863489200
 H         -5.8370240669       -0.4346978212       -1.4565974465
 H         -3.4489224303       -0.4045970498       -2.0974046912
 H         -2.4732214524        2.4265395332       -0.4981265291
 H         -1.2362434619        4.5504614124       -0.5468744660
 H          1.2407166465        4.5492726542       -0.5507538421
 H          2.4755279507        2.4239310600       -0.5054886709
 H          2.3597018299        0.4006510696        1.9624728418
 H          4.7435721785        0.3827161166        2.6154625049
 H          5.8418869769       -0.3816885921       -1.4651449927
 H          3.4540070073       -0.3642003719       -2.1070605104
 H          2.4706786603       -2.4045951438       -0.6013218589
 H          1.2385822956       -4.5202679101       -0.7676396368
 H         -1.2390461402       -4.5204490363       -0.7597639685
 H         -2.4708364772       -2.4065719392       -0.5879543875
 H         -2.3656920197        0.4452642548        1.9583434220
 H         -4.7495118744        0.4162638765        2.6097734109
  46
  -75.1511308232000       4.043785878246042E-002 !
 N         -7.6911877761        0.0350830308       -1.8034523473
 C         -6.6228521259        0.0027221245       -1.3694878008
 C         -5.3199664610       -0.0010783597       -0.8584731111
 C         -4.2347641928       -0.3295562125       -1.6958415983
 C         -2.9582980059       -0.3315176861       -1.1959609559
 C         -2.7264432796        0.0007044802        0.1445596417
 N         -1.3816748172        0.0110422353        0.6093198776
 C         -0.7075563157        1.2042197682        0.7142169613
 C         -1.3675523639        2.4337726656        0.7373851863
 C         -0.6573520756        3.6095740865        0.8309046160
 C          0.7442024374        3.5873300224        0.8779210957
 C          1.4199238902        2.3949589428        0.8095040869
 C          0.7209007952        1.1821968895        0.7299818480
 N          1.3819627708       -0.0126345569        0.6088622582
 C          2.7265318081       -0.0024097336        0.1442967367
 C          3.7972137313       -0.3296461913        0.9833935793
 C          5.0784790895       -0.3276357070        0.4888803225
 C          5.3203580464        0.0026871181       -0.8586967912
 C          6.6233844847        0.0011618000       -1.3692954700
 N          7.6913274684       -0.0317819496       -1.8045206854
 C          4.2360862900        0.3430737463       -1.6925542630
 C          2.9596719361        0.3434685054       -1.1927115169
 C          0.7076522294       -1.2056110057        0.7182346558
 C          1.3669340035       -2.4355208331        0.7446894617
 C          0.6562729560       -3.6106997468        0.8429473335
 C         -0.7451167323       -3.5878952386        0.8909565668
 C         -1.4203162749       -2.3954326205        0.8180704076
 C         -0.7207567447       -1.1833730540        0.7344857803
 C         -3.7978343807        0.3167208534        0.9869372113
 C         -5.0791266920        0.3160999032        0.4924096642
 H         -4.4201021455       -0.5783912261       -2.7296674280
 H         -2.1193214368       -0.5815913840       -1.8295361843
 H         -2.4448136506        2.4537603406        0.6893238572
 H         -1.1817859927        4.5504648701        0.8678845936
 H          1.2928838358        4.5116712968        0.9609828834
 H          2.4986745819        2.3713733149        0.8297626458
 H          3.6072907071       -0.5717691994        2.0188458661
 H          5.9127442081       -0.5764381869        1.1272606935
 H          4.4220915873        0.6016619916       -2.7238600090
 H          2.1214071824        0.6019907629       -1.8238480307
 H          2.4440826256       -2.4566685234        0.6955333379
 H          1.1804478860       -4.5516747045        0.8818978897
 H         -1.2941932972       -4.5118808033        0.9754921947
 H         -2.4990957696       -2.3712504760        0.8363988644
 H         -3.6082124808        0.5498297894        2.0245049555
 H         -5.9141803685        0.5552510087        1.1334541310
