  55
  -90.7839747709000       0.580221773656211      !
 C         -5.0036051965       -0.4855891302        2.9722548877
 C         -4.3098212704       -1.6406916616        2.6749134759
 C         -3.4923066809       -1.6994500632        1.5564378790
 C         -3.3580732752       -0.6052701699        0.7112347495
 C         -4.0442728302        0.5724605305        1.0391016160
 C         -4.8616253030        0.6245285951        2.1531431610
 O         -3.9330139930        1.7239532725        0.3011697672
 C         -3.1203331409        1.6891312644       -0.8046633337
 C         -3.0193636570        2.8502975757       -1.5488198710
 C         -2.2444810761        2.8778162508       -2.6986093286
 C         -1.5930707800        1.7316887694       -3.1091878213
 C         -1.6928668183        0.5661611656       -2.3665576800
 C         -2.4301838853        0.5341068403       -1.1899999570
 N         -2.5521875540       -0.6314895345       -0.4304996567
 C         -1.6432691472       -1.6866642727       -0.6362261109
 C         -2.0652667367       -2.9535595657       -0.9560702914
 C         -1.1437499173       -4.0005484762       -1.1228570863
 C          0.1982727007       -3.7936605859       -0.9680923440
 C          0.6733826119       -2.5078393420       -0.6347323625
 N          1.9852791265       -2.3016035981       -0.4503518731
 C          2.3866655187       -1.0895467576       -0.1171441944
 C          3.7930888917       -0.8522114750        0.1217781845
 C          4.6949937715       -1.9133234810        0.0037133068
 C          6.0361490606       -1.7254314042        0.2432607858
 C          6.4930204422       -0.4640308461        0.6083715342
 C          5.6143970031        0.5910006015        0.7254676609
 C          4.2443486902        0.4326845610        0.4850910132
 C          3.2979293981        1.5356344974        0.5903001633
 C          3.6896928220        2.8387131971        0.9188002311
 C          2.7750073153        3.8665654026        0.9960842111
 C          1.4278412826        3.6342922632        0.7420199539
 C          1.0105779441        2.3635831907        0.4221955839
 C          1.9278673523        1.3112762950        0.3496166979
 C          1.4578114621       -0.0141350690        0.0200637416
 N          0.1651706336       -0.2063779044       -0.1544259917
 C         -0.2524948010       -1.4359927411       -0.4743223811
 H         -5.6442563345       -0.4356010326        3.8384606760
 H         -4.3943356396       -2.5083658409        3.3112030219
 H         -2.9435005087       -2.6043994179        1.3483825294
 H         -5.3723693882        1.5497104584        2.3678312360
 H         -3.5578104023        3.7221664244       -1.2126197218
 H         -2.1668779900        3.7889702240       -3.2707670469
 H         -1.0054289098        1.7332902180       -4.0144498630
 H         -1.1921807834       -0.3286995517       -2.7030016966
 H         -3.1206892594       -3.1446953887       -1.0839571681
 H         -1.5151291490       -4.9817184488       -1.3787707895
 H          0.9164468253       -4.5898406715       -1.0835209403
 H          4.3025831359       -2.8782338836       -0.2770181655
 H          6.7292342676       -2.5481954316        0.1521440151
 H          7.5441415990       -0.3073413651        0.8021602920
 H          6.0066953383        1.5538899180        1.0112506534
 H          4.7264099550        3.0602799386        1.1160770273
 H          3.1109113601        4.8607783447        1.2524621293
 H          0.7169475162        4.4448699676        0.7953624724
 H         -0.0262296507        2.1480993865        0.2152591368
  55
  -90.7831381772000       0.239398915028825      !
 C         -5.1837468653       -0.5088512398        2.8633507607
 C         -4.5572529162       -1.6953403763        2.5412842721
 C         -3.6846464221       -1.7584534473        1.4655366206
 C         -3.4257825585       -0.6371790998        0.6875356703
 C         -4.0415235651        0.5708597701        1.0447717951
 C         -4.9156107491        0.6271500703        2.1150564109
 O         -3.8022338175        1.7496310218        0.3850799895
 C         -2.9697186470        1.7044062548       -0.7047370482
 C         -2.7614740396        2.8876113125       -1.3906151342
 C         -1.9623292878        2.9059008174       -2.5233254814
 C         -1.4032265927        1.7294089933       -2.9826714050
 C         -1.6106659246        0.5432578529       -2.2983393351
 C         -2.3608142233        0.5189387798       -1.1293038993
 N         -2.5645846305       -0.6655714458       -0.4147438941
 C         -1.6580412503       -1.7258991995       -0.5946669764
 C         -2.0684981740       -2.9947961571       -0.9229285028
 C         -1.1389936555       -4.0375085498       -1.0725739270
 C          0.2006132181       -3.8240899122       -0.9059422675
 C          0.6663282174       -2.5333272457       -0.5783343433
 N          1.9782212862       -2.3111805685       -0.4116327967
 C          2.3716544233       -1.0898901764       -0.1030949124
 C          3.7805510350       -0.8280964349        0.0923421062
 C          4.6945522387       -1.8784934788       -0.0282559510
 C          6.0392231620       -1.6659035451        0.1670871204
 C          6.4875264810       -0.3903287662        0.4909267839
 C          5.5969274627        0.6545494088        0.6095295188
 C          4.2232893153        0.4715052665        0.4115946826
 C          3.2648830201        1.5638193296        0.5188121016
 C          3.6489141472        2.8831631266        0.7855868807
 C          2.7212731425        3.8988527633        0.8699805062
 C          1.3679942160        3.6368101907        0.6877528594
 C          0.9589679567        2.3505991789        0.4246098734
 C          1.8902829502        1.3116230814        0.3406692807
 C          1.4319594588       -0.0260204866        0.0465596063
 N          0.1392138408       -0.2367201498       -0.1015040485
 C         -0.2687286898       -1.4700294274       -0.4183010419
 H         -5.8678550395       -0.4550277431        3.6954584855
 H         -4.7385205246       -2.5847669381        3.1250704764
 H         -3.1880185432       -2.6891616438        1.2426238659
 H         -5.3683134510        1.5765665384        2.3529591904
 H         -3.2333622520        3.7839126461       -1.0203047925
 H         -1.7949788729        3.8341729438       -3.0465962669
 H         -0.8026401059        1.7248845468       -3.8793602781
 H         -1.1788555369       -0.3737688303       -2.6694157015
 H         -3.1189139324       -3.1909392033       -1.0804573528
 H         -1.5024189164       -5.0209845578       -1.3313865186
 H          0.9237220339       -4.6164423730       -1.0161361249
 H          4.3086758862       -2.8550200916       -0.2757096502
 H          6.7416057696       -2.4805477623        0.0735169822
 H          7.5412150371       -0.2142034407        0.6507246766
 H          5.9822892453        1.6289145680        0.8642331682
 H          4.6897428470        3.1278186088        0.9256428497
 H          3.0514716693        4.9065079967        1.0762742240
 H          0.6458038477        4.4367074462        0.7494623325
 H         -0.0818789068        2.1136071133        0.2690627054
  55
  -90.7828706751000       0.180379311314964      !
 C         -4.1799309058        0.1970203283        3.2087739391
 C         -3.6007006615       -1.0330684501        2.9729406743
 C         -3.0645662060       -1.3266504429        1.7280083377
 C         -3.1070765240       -0.3943906037        0.7009288560
 C         -3.6919851995        0.8536987596        0.9501593263
 C         -4.2203250190        1.1428441046        2.1940449722
 O         -3.7677000236        1.8359576747       -0.0072731641
 C         -3.1403253762        1.5946522374       -1.2051978267
 C         -3.1241089639        2.6209728447       -2.1305486842
 C         -2.5198523059        2.4387305208       -3.3664775311
 C         -1.9333113240        1.2266355097       -3.6681892942
 C         -1.9448672182        0.1948951242       -2.7419234738
 C         -2.5420946268        0.3639928592       -1.5003835147
 N         -2.6049860870       -0.6769276051       -0.5707558690
 C         -1.6885423177       -1.7479181808       -0.7261365672
 C         -2.0880804132       -2.9984919809       -1.1125042548
 C         -1.1447220970       -4.0280981313       -1.2877517016
 C          0.1896638443       -3.8053962490       -1.0968629198
 C          0.6380144185       -2.5297698036       -0.6921666223
 N          1.9462598032       -2.2881212824       -0.5251866608
 C          2.3090983855       -1.0930414816       -0.1005274362
 C          3.7160102527       -0.7908439062        0.0442975816
 C          4.6640710890       -1.7360875979       -0.3566991140
 C          6.0092395158       -1.4676416040       -0.2565480238
 C          6.4239069558       -0.2406769752        0.2485308254
 C          5.4991319929        0.6972212900        0.6538972426
 C          4.1238095378        0.4517833296        0.5695260512
 C          3.1274197254        1.4248132802        0.9980892951
 C          3.4688516605        2.6336322474        1.6153698508
 C          2.5052197028        3.5387674950        2.0051880750
 C          1.1576717960        3.2733220217        1.7889062757
 C          0.7902944714        2.0907255841        1.1904771053
 C          1.7578245683        1.1610875242        0.7989600156
 C          1.3392623159       -0.0912703968        0.2135235176
 N          0.0563454740       -0.2961714612       -0.0078654979
 C         -0.3147970883       -1.4939520054       -0.4753987675
 H         -4.5982134023        0.4311603300        4.1751508248
 H         -3.5587527693       -1.7755354863        3.7552032160
 H         -2.6069299568       -2.2881371814        1.5503983578
 H         -4.6592067065        2.1154677853        2.3506392837
 H         -3.5901304586        3.5571006012       -1.8669699277
 H         -2.5145012968        3.2445860030       -4.0835787332
 H         -1.4636936650        1.0706968118       -4.6274926277
 H         -1.4891985189       -0.7530763120       -2.9861327731
 H         -3.1359110934       -3.1918420466       -1.2881275031
 H         -1.4930060817       -5.0039310136       -1.5917404439
 H          0.9243100892       -4.5811474407       -1.2452797760
 H          4.3048713844       -2.6739013430       -0.7507063829
 H          6.7381637031       -2.1989055834       -0.5717671398
 H          7.4781345155       -0.0177958347        0.3236015942
 H          5.8585635632        1.6398890134        1.0346998068
 H          4.5030965570        2.8720154876        1.8063179822
 H          2.8020103742        4.4603943797        2.4842586814
 H          0.4074533282        3.9863973718        2.0951144484
 H         -0.2463748107        1.8474433815        1.0167652669
