  34
        -49.87695830
 C         -4.8390129367        1.3735575139        0.0132665309
 C         -5.0210720159       -0.0189368652        0.0129307436
 C         -3.9577782764       -0.8788535026        0.0050118619
 C         -2.6406116879       -0.3392198941       -0.0028524005
 C         -2.4697184985        1.0929040685       -0.0029504076
 C         -3.5474681904        1.9268555438        0.0050060998
 C         -1.0040713580        1.4108457499       -0.0116464155
 C         -0.3703019109        0.0479785089       -0.0119926843
 C         -1.3883509093       -0.9503682443       -0.0088378192
 C         -1.0387335179       -2.3605697407       -0.0083906806
 C          0.2856078947       -2.7178893432       -0.0035830562
 C          1.2761723401       -1.7428190461       -0.0024584692
 C          0.9442846457       -0.3187069487       -0.0096055288
 C          2.1739596386        0.4177812408       -0.0061399703
 C          2.4223855276        1.7919573592       -0.0128815091
 C          3.7315729618        2.2341002418       -0.0039955287
 C          4.7899921290        1.3356517883        0.0121310762
 C          4.5526482195       -0.0386490376        0.0172545085
 C          3.2559228323       -0.4902476278        0.0070867244
 C          2.7600893214       -1.9114260424        0.0085450046
 H         -5.6993055331        2.0241028928        0.0199888871
 H         -6.0287969553       -0.4091632630        0.0193122175
 H         -4.1007237103       -1.9483032498        0.0050676384
 H         -3.4234020797        3.0004830171        0.0042564927
 H         -0.7222368734        1.9876048301       -0.8970396995
 H         -0.7121590235        1.9915814141        0.8678329876
 H         -1.8244525176       -3.0976991204       -0.0105230250
 H          0.5670102480       -3.7618239410       -0.0006028096
 H          1.6073205087        2.4983232300       -0.0254143446
 H          3.9366916433        3.2948709645       -0.0093348737
 H          5.8051985070        1.7026622443        0.0203017368
 H          5.3807804194       -0.7329183670        0.0292438466
 H          3.1168519193       -2.4670992794       -0.8666537680
 H          3.1039418527       -2.4613832249        0.8924436578
