  60
        -93.76981899
 C          7.7638693907       -0.2376297295       -1.4305323122
 O          7.0403025908       -0.0103128277       -0.2455107052
 C          5.6769030256       -0.0621999066       -0.2983103431
 C          4.9310898410       -0.3365394665       -1.4345388166
 C          3.5467535128       -0.3526259217       -1.3467173277
 C          2.8882068783       -0.0989092923       -0.1586742131
 C          1.4099199586       -0.1037162964       -0.0829928493
 C          0.7144481985        1.1096717102       -0.0062069989
 C          1.3904473683        2.3573836270       -0.0259615685
 C          0.7083353844        3.5303737630        0.0737077405
 C         -0.6952531099        3.5273121252        0.2042895129
 C         -1.3817950790        2.3525942182        0.2093952689
 C         -0.7112719060        1.1079859430        0.0855639223
 C         -1.4101149822       -0.1062188059        0.0657766831
 C         -2.8876612023       -0.1061863960        0.1426905029
 C         -3.5445688677       -0.5122013010        1.2891068287
 C         -4.9285847464       -0.5117901517        1.3801784429
 C         -5.6771232855       -0.0964005825        0.2893794818
 O         -7.0407442817       -0.0464996752        0.2439269171
 C         -7.7622182758       -0.4510357511        1.3820916815
 C         -5.0322754270        0.3117238853       -0.8800127396
 C         -3.6508561923        0.3103183055       -0.9635795577
 O         -2.9453224214        0.6802718332       -2.0669730823
 C         -3.6498651115        1.1347344654       -3.1951518592
 C         -0.7153346651       -1.3192956079       -0.0245976554
 C         -1.3919183276       -2.5667848942       -0.0673147083
 C         -0.7061644679       -3.7401375656       -0.1346222120
 C          0.7034710244       -3.7399671793       -0.1613662054
 C          1.3895733915       -2.5652002120       -0.1409562022
 C          0.7130642147       -1.3181882710       -0.0862169764
 C          3.6483779096        0.1714552396        0.9937888409
 O          2.9388282977        0.3943050658        2.1335349235
 C          3.6400800673        0.6892667951        3.3154030220
 C          5.0298130646        0.1871787694        0.9137798584
 H          7.5157457717        0.4998457518       -2.2006629793
 H          8.8132893596       -0.1355735349       -1.1591265954
 H          7.5878211102       -1.2444988417       -1.8224270500
 H          5.4013975845       -0.5358818319       -2.3833322307
 H          2.9616460687       -0.5625755377       -2.2298200353
 H          2.4656180449        2.3572967518       -0.1251892270
 H          1.2351348031        4.4738864006        0.0565553208
 H         -1.2186060577        4.4681761003        0.2991761759
 H         -2.4564506713        2.3496064556        0.3128705519
 H         -2.9575471368       -0.8325551538        2.1371091797
 H         -5.3966531085       -0.8327197817        2.2962071284
 H         -8.8129374537       -0.3333879048        1.1220546044
 H         -7.5660538574       -1.4990919655        1.6305287845
 H         -7.5312945794        0.1769092616        2.2487256591
 H         -5.6551885359        0.6211626937       -1.7026050356
 H         -4.3032941892        0.3565806466       -3.6032350797
 H         -4.2451557318        2.0248081332       -2.9662874824
 H         -2.8896532240        1.3898545475       -3.9316299949
 H         -2.4712796520       -2.5654486026       -0.0477126993
 H         -1.2348851283       -4.6821426569       -0.1674687320
 H          1.2312071686       -4.6821618139       -0.2023111152
 H          2.4689517537       -2.5611788551       -0.1646647438
 H          2.8777918135        0.8410482786        4.0777709982
 H          4.2360077809        1.6019931690        3.2126448369
 H          4.2922738025       -0.1379219661        3.6143598400
 H          5.6508220635        0.3885926941        1.7704910960
