101
 energy: -158.999275188033 gnorm: 0.000176838029 xtb: 6.7.1 (edcfbbe)
C           -0.34084705195341       -0.63955402213126        0.16807762946719
C            0.69891583140830        0.31016560184824        0.12786249884183
C            0.53449498822797        1.72436572580769        0.03087231461394
C            1.62978019997221        2.60989721739367       -0.07019267329656
C            1.43793875600885        3.97279899406325       -0.11561364647996
C            0.16659079562279        4.52214623294598       -0.06012871567758
C           -0.93341389829001        3.66638113456627        0.01021949245875
N           -2.23545434192658        4.18680174616316        0.05562098292575
C           -3.21735565669053        3.82142618849188        0.95464441921071
C           -3.15126684503965        2.95138077376029        2.03430233411173
C           -4.28869536154571        2.78451554344768        2.80091571515708
C           -5.46822482371245        3.46900191809104        2.51244407876579
C           -5.53328598665136        4.35405706197524        1.45519062334913
C           -4.40204386040499        4.53991949805105        0.67129563213294
C           -4.11133711209614        5.37499823355231       -0.45975919981949
C           -4.86279160620757        6.28197391916793       -1.19531122523265
C           -4.26836337603503        6.91904509144069       -2.26579340739071
C           -2.94707289588660        6.64912826031998       -2.61583443734985
C           -2.17949335438954        5.75086544181757       -1.89991565315519
C           -2.76321000983682        5.12644727562621       -0.80674383539316
C           -0.75187245444243        2.29709633445136        0.04443033243562
N            1.98561962923248       -0.20949873660630        0.21997152995609
N            2.18588852128700       -1.54209158714910        0.51217356241616
C            3.48766797002960       -1.97799299822567        0.65439798633630
C            3.73009937947117       -3.23654000927400        1.22198651086623
C            5.02575929784885       -3.66252563697328        1.41533155728032
C            6.10195299884452       -2.86021573381715        1.06653209688734
C            5.86782396293492       -1.62272988781271        0.47001920983652
N            6.93116099946251       -0.79870496898679        0.08649662567008
C            8.03453608068888       -1.17943141174543       -0.65501450404599
C            8.34996573424080       -2.41475663669583       -1.20145107374700
C            9.51898742312874       -2.51725582063344       -1.93121339781497
C           10.35470132460157       -1.41991900426337       -2.12569908903438
C           10.03172672984559       -0.18177604915427       -1.60796870655548
C            8.86167804225320       -0.05403741467151       -0.87109577352143
C            8.21982209016214        1.05709751385459       -0.22553223294979
C            8.54776882254847        2.39901022991241       -0.08513261146273
C            7.69750213398353        3.21768314259871        0.63105128976483
C            6.54489612595881        2.70808413850903        1.22382085498328
C            6.20010014568824        1.37565518467320        1.09958237862698
C            7.03166452279911        0.55417337613039        0.35163730562537
C            4.56779807048491       -1.18798171134076        0.24953913084770
N            1.20728617822188       -2.40973017929897        0.63957724773571
C           -0.06722100204873       -1.97217446772740        0.44513691421111
C           -1.11253701916841       -2.96464977017751        0.61418278306557
C           -0.84962933192484       -4.15738303797465        1.29817282648004
C           -1.85826410451097       -5.06997226779930        1.52842208497501
C           -3.15179359419449       -4.82069694411844        1.09945136014517
C           -3.42207236737708       -3.65268494762439        0.38963949335655
N           -4.71911475876257       -3.36998866516510       -0.06088071454233
C           -5.55091057481792       -4.22750513588852       -0.75247449885812
C           -5.32245006233260       -5.52597062121209       -1.18537887211672
C           -6.32927130387008       -6.15892220237535       -1.88865788505101
C           -7.53531388448186       -5.51986369789177       -2.16782045666634
C           -7.75818001910543       -4.21883248206505       -1.76412862983477
C           -6.76092687025634       -3.56130020136652       -1.05617108074664
C           -6.64281893133852       -2.23449328426308       -0.52007460516529
C           -7.48985534021523       -1.13383073780461       -0.50004156417010
C           -7.05999406145984        0.02114069063632        0.12152986478070
C           -5.81298410228631        0.08038950480220        0.73989869347273
C           -4.95698723792959       -1.00403528604037        0.73853338294227
C           -5.36709783001520       -2.15788632652452        0.08423239048662
C           -2.40493328907671       -2.74571938610574        0.13378611123555
H           -1.35574279374671       -0.31350976264536        0.04939752589271
H            2.64150342931057        2.23628797418789       -0.13585106028384
H            2.29551713252748        4.62600011216475       -0.18688428913980
H            0.02362872968065        5.59083055280510       -0.06011747467368
H           -2.23836374649980        2.42894745132564        2.27853879366296
H           -4.26321374070512        2.10860954096992        3.64344768194501
H           -6.33756291744715        3.30536345054733        3.13203810174110
H           -6.44157649299442        4.89676137201434        1.24073956640514
H           -5.89164707448026        6.47840169375345       -0.93350378262864
H           -4.83387333771916        7.63043093559292       -2.84918990621868
H           -2.51390260661013        7.15092792540501       -3.46869723597997
H           -1.16249506704370        5.53504170415277       -2.19079058831091
H           -1.62753058504993        1.67044780118426        0.07935681192930
H            2.70512286072634        0.40454590899763        0.57894395660785
H            2.88779723149435       -3.84434917177679        1.50370665394890
H            5.20681866718150       -4.62776384320746        1.86289338719441
H            7.11343352390100       -3.17997720075940        1.25909179831643
H            7.69989232544411       -3.26702361063698       -1.07467151669631
H            9.78831782729354       -3.46938650623697       -2.36382988947764
H           11.26137180447691       -1.54222566163048       -2.69905990616166
H           10.66934839242291        0.67341411769054       -1.77328802528486
H            9.45263140143979        2.78877235077688       -0.52596325627551
H            7.93114045318777        4.26530762366768        0.74725143341219
H            5.90908592881070        3.36667819294028        1.79727563497277
H            5.32164592076165        0.98542916198329        1.59295045486812
H            4.42295951674250       -0.26353517018408       -0.28758386268290
H            0.15148797155863       -4.33980871501734        1.65290654502303
H           -1.64439819745579       -5.98158085234904        2.06713661095326
H           -3.94926329720535       -5.51348591038567        1.31958513279679
H           -4.38412317392770       -6.02384965262685       -0.99292914775403
H           -6.17598737357818       -7.17107859095251       -2.23345206673642
H           -8.29893711620090       -6.05034842291815       -2.71715389195661
H           -8.68540467028337       -3.71643399593982       -1.99563659981297
H           -8.46412375426321       -1.18685521057254       -0.96239237700777
H           -7.69759680694291        0.89236929499303        0.14123215562978
H           -5.51016114634676        0.99293903990078        1.23184307292101
H           -4.00466883070073       -0.95448090386460        1.24542270390109
H           -2.62941017909927       -1.87921074916513       -0.46804243848457
