101
 energy: -159.035059628743 gnorm: 0.000068097744 xtb: 6.7.1 (edcfbbe)
C            0.57538747748766       -1.44263614374703       -0.07418235184484
C            1.25553188639283       -0.32420932945662        0.24682013725438
C            2.69329716394342       -0.12655122453327        0.11033885000878
C            3.22435539344586        1.16523643334401        0.12955123781904
C            4.58590025810579        1.36431680257175        0.00991807082313
C            5.44646705735255        0.28856285348998       -0.11405493614978
C            4.93097974616880       -1.00573617402628       -0.13413060606677
N            5.78961255967245       -2.10608403731683       -0.25421165581435
C            6.78003349831924       -2.25975704540862       -1.20506956588877
C            7.12699332845663       -1.43089143336268       -2.26222191420338
C            8.15245063029978       -1.84042436608006       -3.09284917506695
C            8.81593647684745       -3.04836207054232       -2.88923355421626
C            8.45846056036530       -3.88862928485009       -1.85403378444601
C            7.43071470467501       -3.49871516305911       -1.00546849249945
C            6.79889766302136       -4.11426016252510        0.12789415840812
C            7.00612363809844       -5.30926576299062        0.80413392504532
C            6.21548864891958       -5.59583278197465        1.89887186825128
C            5.23915539954185       -4.70094037998003        2.33061662995535
C            5.01471810789937       -3.50563739530489        1.67464503681607
C            5.78933865165180       -3.22314592203472        0.55855397033874
C            3.56201391395200       -1.20815029581593       -0.02653232633355
N            0.53780568238680        0.79264863542698        0.77251657602804
N           -0.81508912609027        0.79625431728032        0.33580185524327
C           -1.41034844088341        2.01350216034925        0.08257091693907
C           -2.74773280994602        2.06789104889315       -0.32174575164048
C           -3.34489373771999        3.29118201773767       -0.54162705117750
C           -2.63816508630506        4.47073505579442       -0.37368363390993
C           -1.30110908882948        4.41804586611227        0.01018769588921
N           -0.56540194120407        5.60003580876431        0.17753154302995
C            0.20426091955669        5.92243908766898        1.27700421975241
C            0.40062789108387        5.21990635478394        2.45771211117290
C            1.21274857519401        5.78770049776208        3.42042342672981
C            1.81296440357241        7.02987273765651        3.22611804775676
C            1.60130769159414        7.74557173377737        2.06492169868536
C            0.78923090871919        7.19515352917511        1.08204516284636
C            0.34751071386143        7.65374701805476       -0.20483379511669
C            0.59165700772068        8.80366731066644       -0.94423229396561
C            0.01243881371572        8.92334742401621       -2.19135104198590
C           -0.78822399089916        7.90745137333259       -2.70930878935096
C           -1.04611734602536        6.75476580152059       -1.99277206288267
C           -0.48778935979100        6.63964568176212       -0.72754341309200
C           -0.68770668989450        3.19433503266074        0.23971514423445
N           -1.50276181640933       -0.31861438096020        0.17204056693758
C           -0.87107706588881       -1.44605451900360        0.04139152561075
C           -1.68690781446457       -2.64663904937079       -0.10346571058192
C           -1.14943441366351       -3.90095579502226       -0.39334036411145
C           -1.98122953519876       -4.99430209870857       -0.55301592383661
C           -3.35330616412044       -4.86647033286951       -0.44136456619742
C           -3.90222741257012       -3.62336625774228       -0.13009484541626
N           -5.28855093439618       -3.46305149424495       -0.01484515378317
C           -6.02791895082835       -2.45269991291795       -0.60047033445717
C           -5.61870992061897       -1.42855352514379       -1.44320260377321
C           -6.58057649088311       -0.55356184419994       -1.91026885446828
C           -7.92254854301436       -0.69312996576306       -1.56312043618863
C           -8.34003050157333       -1.72608741010611       -0.74834107282541
C           -7.39099635787934       -2.61664725002124       -0.26357503288126
C           -7.46815387790502       -3.78178187619044        0.57230262209450
C           -8.51586338591595       -4.42466679287190        1.21805339741382
C           -8.23660965494745       -5.53618765186110        1.98748093067102
C           -6.92978659999499       -5.99681139988965        2.13092963025982
C           -5.87104064562268       -5.37420541299624        1.49801134738090
C           -6.14840954873363       -4.27315021892457        0.70022991721617
C           -3.06851296036939       -2.53193468929124        0.05426466913290
H            1.06767272384175       -2.28208909129292       -0.52980695503259
H            2.55726088265042        2.00682713806795        0.22310777685430
H            4.98368908188474        2.36803311032912        0.02486338987977
H            6.51313526070508        0.43975859832234       -0.17701622007912
H            6.60689312662000       -0.50167818772270       -2.44017572127108
H            8.44340591016597       -1.21118109658410       -3.92104512085995
H            9.61417489147481       -3.33119258183527       -3.55915433071387
H            8.96119436033406       -4.83236657001025       -1.70550501327297
H            7.77427445899100       -5.99458681185813        0.47911970859555
H            6.35850732466817       -6.52072522477875        2.43749175567184
H            4.64662365372220       -4.94458000324184        3.20025555483668
H            4.26891016271481       -2.81053825652033        2.03046743640588
H            3.18165122499990       -2.21738330578209       -0.04678269936874
H            0.58081551006886        0.81687154291451        1.79542183308461
H           -3.29658269942258        1.15001049526795       -0.44961592774407
H           -4.38101783291417        3.32918876107094       -0.84258197917910
H           -3.11628423322662        5.42601336502668       -0.52295925583707
H           -0.07727431096849        4.26680830684486        2.62714592129513
H            1.38280136683684        5.25870199432382        4.34687505884913
H            2.44322889560553        7.43850249095139        4.00201279646021
H            2.05191917419728        8.71603315615340        1.92090006764007
H            1.22524557242992        9.58332526277358       -0.54878379690532
H            0.18663611833801        9.81073089099312       -2.78160332662017
H           -1.21439115696728        8.02231951967969       -3.69516205022285
H           -1.65328893862831        5.96580901674117       -2.41006874965453
H            0.35346453636229        3.15750083957129        0.51454575151533
H           -0.08493464705578       -4.03537032983907       -0.50214041550956
H           -1.55381992886329       -5.95888389044078       -0.78456063627411
H           -3.99957480958454       -5.71461968659758       -0.60688661895431
H           -4.58553037454080       -1.32181152918747       -1.73703316531995
H           -6.28483381781479        0.25473756923180       -2.56302306933647
H           -8.64362302431868        0.01314469945970       -1.94716727877855
H           -9.38209414287232       -1.84575556475293       -0.49270722907354
H           -9.52590085888509       -4.05588919530743        1.12098494946326
H           -9.03710840799640       -6.05287229732504        2.49579651961181
H           -6.73894851453358       -6.85804133506876        2.75434002271649
H           -4.86023779565364       -5.72809983253426        1.63400141662942
H           -3.48123390170607       -1.57455869859998        0.32804280481721
