  92
       -131.59641999
 C         -7.3198825895        5.3380712752        0.5363389263
 C         -7.6739525216        4.3024130535       -0.5407143392
 C         -7.5385771638        4.9332481768       -1.9340903881
 C         -9.1361681484        3.8929694368       -0.3436681467
 C         -6.7171671246        3.1256163808       -0.4310305423
 C         -5.3431340135        3.3532449518       -0.5885996533
 C         -4.4008861561        2.3491904148       -0.4957775789
 C         -4.8431611049        1.0630759020       -0.2212585786
 C         -6.2253139273        0.8014210518       -0.0944680789
 C         -7.1509612168        1.8286411475       -0.1942872994
 C         -6.3531681330       -0.6169222375        0.1102572420
 C         -7.4443932789       -1.4460407248        0.3191577486
 C         -7.2476780349       -2.8049914380        0.5214872104
 C         -8.3974457301       -3.7745534883        0.7463090493
 C         -8.2371379664       -4.4357213763        2.1232237541
 C         -9.7649436027       -3.0864073687        0.7063829106
 C         -8.3707931498       -4.8470921576       -0.3527020537
 C         -5.9350346786       -3.2966028120        0.5324824968
 C         -4.8312638739       -2.4934493968        0.3291812945
 C         -5.0423506805       -1.1428304827        0.0916446110
 N         -4.1358106869       -0.1188991396       -0.1081065013
 C         -2.7559867148       -0.2512925337       -0.1818397120
 C         -1.9111740981        0.6404258131        0.5013073494
 C         -0.5534077169        0.5134616484        0.4264623780
 C          0.0679975045       -0.5110513048       -0.3415535345
 C          1.4799023206       -0.6361240625       -0.4226959985
 C          2.1162917692       -1.8378678216       -0.8632145436
 C          3.4655166224       -1.9597451391       -0.9118645775
 C          4.3280949747       -0.8897498759       -0.5238146336
 C          5.7136391173       -1.1084904130       -0.5890099475
 N          6.2542718593       -2.1595002123       -1.2306574470
 N          7.5471529917       -2.0550317191       -1.2164752752
 C          7.9042501031       -0.9640648921       -0.5524110082
 C          9.2770174091       -0.6146635540       -0.3093192606
 C          9.6975711559        0.1758410578        0.7670437412
 C         11.0392810478        0.4458712603        0.9462529309
 C         11.9861559807       -0.0633700398        0.0709218633
 C         11.5813201541       -0.8694240205       -0.9847456068
 C         10.2455123675       -1.1469886268       -1.1736228727
 N          6.7612467962       -0.3088386728       -0.1300309130
 C          6.6910676002        0.8790708118        0.6087430100
 C          6.0700935926        0.8896722463        1.8568853507
 C          6.0177015983        2.0628396165        2.5842342635
 C          6.5820373869        3.2246784050        2.0799875068
 C          7.2011392916        3.2119709439        0.8397968059
 C          7.2588365896        2.0459188824        0.1009805262
 C          3.7050839626        0.3332154437       -0.1444706765
 C          2.3523570085        0.4433689223       -0.0883360074
 C         -0.8109908843       -1.4012088288       -1.0197022808
 C         -2.1690414813       -1.2779428115       -0.9416577524
 H         -7.4004077432        4.8936105867        1.5260796860
 H         -6.3073003685        5.7111534682        0.4123671555
 H         -8.0024025402        6.1832687100        0.4811705079
 H         -7.7543079465        4.1949978485       -2.7034980242
 H         -8.2399971624        5.7578539938       -2.0403099619
 H         -6.5363271666        5.3167679396       -2.1019256893
 H         -9.7715234969        4.7730000048       -0.4197118851
 H         -9.2906159177        3.4522352817        0.6385209462
 H         -9.4513607498        3.1858240429       -1.1074486764
 H         -4.9933446171        4.3521883613       -0.7986924323
 H         -3.3548121263        2.5635649886       -0.6512519854
 H         -8.1968704998        1.5942090474       -0.0890645841
 H         -8.4299776224       -1.0115902420        0.3264223835
 H         -9.0681052719       -5.1124301472        2.3113787636
 H         -7.3142460846       -5.0060221229        2.1864760694
 H         -8.2241951335       -3.6783347345        2.9049971261
 H        -10.5470899585       -3.8267265386        0.8610144291
 H         -9.9374769092       -2.6133039806       -0.2579307752
 H         -9.8513246055       -2.3395258545        1.4926479966
 H         -8.4697351176       -4.3837109348       -1.3325452984
 H         -7.4427162951       -5.4118635207       -0.3352373542
 H         -9.1952145780       -5.5436508880       -0.2155639941
 H         -5.7653938982       -4.3468411816        0.7123040029
 H         -3.8364256366       -2.9089952271        0.3709354623
 H         -2.3516555539        1.3994619821        1.1313047129
 H          0.0594634400        1.1815650037        1.0103381361
 H          1.5085634187       -2.6886205846       -1.1289923457
 H          3.9328385689       -2.8779093044       -1.2310621672
 H          8.9818198799        0.5553139041        1.4797069341
 H         11.3502509982        1.0564816690        1.7817310323
 H         13.0329127994        0.1583496417        0.2157051940
 H         12.3161517419       -1.2795127055       -1.6618499188
 H          9.9150984800       -1.7745785933       -1.9863476976
 H          5.6331980691       -0.0208168007        2.2399950310
 H          5.5385305357        2.0691967603        3.5518540440
 H          6.5397151105        4.1382965743        2.6532711508
 H          7.6387710903        4.1160959575        0.4438637042
 H          7.7413034156        2.0250701590       -0.8650189691
 H          4.3129107514        1.1988155943        0.0677470991
 H          1.9265129001        1.4009498754        0.1702152345
 H         -0.3991718686       -2.1670245406       -1.6570697993
 H         -2.8075250362       -1.9405327443       -1.5075007057
