92
 energy: -131.685778537561 gnorm: 0.000174136225 xtb: 6.7.1 (edcfbbe)
C           -7.48197912433588        4.96376418747816       -1.87576813959944
C           -7.60141562307664        4.32841821078857       -0.48328123251824
C           -9.06276293794646        3.92402818094821       -0.26986528467608
C           -7.23231670929175        5.35973848562533        0.59246281808954
C           -6.64799163614514        3.14575753401513       -0.39041008504338
C           -5.27455399163841        3.37043305910946       -0.55544927457254
C           -4.33497925821816        2.36251690437979       -0.48192209843902
C           -4.77990161305232        1.07505506519675       -0.22490748949438
C           -6.15924798052995        0.81691704419548       -0.08271137918793
C           -7.08292261352095        1.85103543911602       -0.16116150365363
C           -6.29025152243494       -0.60016595331165        0.11586152626912
C           -7.38385722653241       -1.42835992591816        0.33246678254807
C           -7.19124275796019       -2.78705506281940        0.51901385564323
C           -8.34163361728039       -3.75506708255687        0.75526338650108
C           -9.70607797216068       -3.06021305463455        0.74686430262308
C           -8.34199848955825       -4.81655977490645       -0.35389117645374
C           -8.16062363875368       -4.43071029408978        2.12193129565742
C           -5.88167374464403       -3.28580531290831        0.49946072987402
C           -4.77724196120456       -2.48643696355215        0.28670915889227
C           -4.98471607687879       -1.13229761214849        0.07494428240669
N           -4.07656999506802       -0.11066394880453       -0.12937262086664
C           -2.68938381011783       -0.25256275736511       -0.22296012519402
C           -1.84506133095766        0.57357759796935        0.51537543835829
C           -0.47619691757188        0.43417466699949        0.41605632174577
C            0.08835638376305       -0.53934550331168       -0.40684805597806
C            1.54516212255703       -0.69079332401788       -0.50205828801375
C            2.12912958929121       -1.95542647298001       -0.57943898364413
C            3.49752104117785       -2.09777862912752       -0.66106809087386
C            4.32556534438403       -0.97537261252195       -0.66360572899713
C            5.75896991750250       -1.17525744894485       -0.76477586747051
N            6.32427090389821       -2.14042202299870       -1.44430775568255
N            7.64610688382484       -2.00663111526731       -1.35291785742824
C            7.91050928477094       -0.96069790889009       -0.61225525091952
C            9.25058949826872       -0.52294816448009       -0.26329737678194
C            9.55163954516556        0.04043546997631        0.97472654259566
C           10.84777805593406        0.42798258139811        1.26037791449144
C           11.85314407854007        0.25372765480612        0.32414863713220
C           11.56271496086561       -0.32749747609653       -0.90005668351636
C           10.27082080241819       -0.71728962755516       -1.19382169602630
N            6.73176460444305       -0.38003619806450       -0.20269325573740
C            6.55763022279518        0.75630837716670        0.60533091795319
C            5.78760333456197        0.67024672058511        1.76024947126712
C            5.61605428894016        1.79200869464369        2.54987929006109
C            6.21181791810961        2.99184579447621        2.19685976405270
C            6.98051638697948        3.07269295445676        1.04719575019631
C            7.15459226568894        1.95969956587244        0.24566381527333
C            3.74821837307596        0.29184915594962       -0.61082186871068
C            2.37758980960608        0.42705928177347       -0.52676895715945
C           -0.76466150342438       -1.36576555640420       -1.13701870014422
C           -2.13415606660653       -1.22229135963963       -1.05484722468907
H           -6.47671144181155        5.33291837127669       -2.05895667047553
H           -7.72071122102403        4.23125100617477       -2.64422988211796
H           -8.17329955843838        5.79902899625155       -1.96791994889362
H           -9.20655403439895        3.48206171835411        0.71346346231379
H           -9.69660664111039        4.80612570938163       -0.33783099115192
H           -9.38856056767053        3.21808514077946       -1.03033252251551
H           -7.91674986462733        6.20476450232691        0.55277780138901
H           -6.22213071079455        5.73466378911796        0.45369839578609
H           -7.29590187071531        4.90976649208520        1.58116459136060
H           -4.92239796514919        4.37135717007672       -0.75399895012333
H           -3.28759314143226        2.57597435536535       -0.63496452578797
H           -8.12820703014297        1.61762974709032       -0.04574920523670
H           -8.36664700774515       -0.98789491589009        0.35560514849103
H          -10.48936700753909       -3.79726455942319        0.91311092355066
H           -9.77153206542984       -2.31724947495715        1.53839526753160
H           -9.89458779796481       -2.58021345918342       -0.21066673019650
H           -9.17243929873693       -5.50562232630897       -0.21388670684079
H           -7.42015979837572       -5.39143423616757       -0.35374329696242
H           -8.44725907058926       -4.34197199956456       -1.32738092867900
H           -8.98830663406613       -5.10946107832856        2.31756410825726
H           -7.23684054134009       -5.00082913956606        2.16419954766705
H           -8.13439045492004       -3.68131032350046        2.91039943069610
H           -5.71473378670070       -4.33997346717529        0.66077436376357
H           -3.78344273616179       -2.90848021376328        0.29917061589730
H           -2.27108259774005        1.31051373801475        1.17972474192112
H            0.16639744870202        1.06835693850697        1.00915081489555
H            1.50205188075420       -2.83421426765173       -0.55371886408549
H            3.95155286835114       -3.07440012279130       -0.72264195889128
H            8.78199006021513        0.15929263452000        1.72331364020306
H           11.07354245696720        0.86412014846538        2.22248091230985
H           12.86280928827379        0.56166042505587        0.55226283611855
H           12.34726579810379       -0.47707000720625       -1.62689871516354
H           10.02725884304525       -1.17746016002427       -2.13858373899659
H            5.32997253024154       -0.27071448767791        2.02811462898458
H            5.01780987917412        1.72620151071844        3.44604493430430
H            6.07721492782149        3.86419446638297        2.81809497135775
H            7.44488270441873        4.00682445567087        0.76972828564640
H            7.74988294449840        2.01282426076257       -0.65396251028080
H            4.36652139357771        1.17640079420592       -0.65850790076721
H            1.94343214918693        1.41591573204342       -0.50700647608859
H           -0.34727995764183       -2.10764355169862       -1.80155603012709
H           -2.78388124577215       -1.84756724654520       -1.64865912732125
