92
 energy: -131.685785165449 gnorm: 0.000052248902 xtb: 6.7.1 (edcfbbe)
C           -6.42971818095226        5.06568654686228       -1.62750662831549
C           -6.55256007855455        4.34985445034465       -0.27494435183652
C           -8.02106448621517        3.96633659084809       -0.07248157103328
C           -6.15124662732298        5.30556449295733        0.85762337494852
C           -5.62597658597578        3.14253680003947       -0.26195982347084
C           -4.24904519946309        3.34537551144805       -0.42609825346626
C           -3.33250739109485        2.31383353549847       -0.42029566134868
C           -3.80504111007866        1.02389739139348       -0.23484874280823
C           -5.18890177246559        0.78915995840335       -0.09626126517309
C           -6.08898908679207        1.84669829231405       -0.10568860931107
C           -5.35121722044257       -0.63375443144563        0.02036827389498
C           -6.46228289778806       -1.44813114301142        0.19659718636948
C           -6.29993088242824       -2.81941697122040        0.30213922842428
C           -7.47097640946483       -3.77317343076225        0.48982762173838
C           -8.81959130731166       -3.04887194853848        0.52509741551662
C           -7.49884397254760       -4.77214817863555       -0.67562714831093
C           -7.30072380570107       -4.52648336756013        1.81667795684431
C           -5.00226823215446       -3.34558176438081        0.24451887069561
C           -3.88105059033140       -2.56044984072861        0.06986013158367
C           -4.05860002227872       -1.19198805752887       -0.06182872579902
N           -3.12862708119263       -0.18103099617124       -0.21449346572184
C           -1.74546397234279       -0.34788405873345       -0.32489486273068
C           -0.87950391277782        0.41600714466276        0.45425964913956
C            0.48541353335550        0.25391039684195        0.33743164782716
C            1.02429494720139       -0.68191525943988       -0.54432631922371
C            2.47721966043499       -0.85610061300002       -0.65816071610717
C            3.03684864223002       -2.12513767050804       -0.80845513651494
C            4.40209110348670       -2.28820483951592       -0.90355954429348
C            5.25126318875291       -1.18298813497562       -0.84788341257207
C            6.68046472223093       -1.40387918729768       -0.96201858095089
N            7.22770756912865       -2.34876234272752       -1.68375978763684
N            8.55177555706407       -2.24296891934336       -1.58916720170711
C            8.83581525878883       -1.23492050998117       -0.80445231180285
C           10.18335735756716       -0.83468786779166       -0.43963249301765
C           10.49437473399911       -0.32641765349981        0.81963573673750
C           11.79663496782269        0.02906837831350        1.11872868152442
C           12.79840729838956       -0.12338031441020        0.17490592899775
C           12.49786904535558       -0.65058194481403       -1.07112285706754
C           11.19971378262726       -1.00765843628682       -1.37856139892092
N            7.66826870159732       -0.65156205418338       -0.36797929262492
C            7.51802065366094        0.45316423585796        0.48748619450912
C            6.76091235206094        0.33030557447396        1.64756158415765
C            6.61451068242866        1.42126814472605        2.48404346473353
C            7.22202343186300        2.62658184695164        2.17200500853278
C            7.97751117166634        2.74406859897526        1.01675427585614
C            8.12697282001881        1.66215237253342        0.16907396904138
C            4.69778845127714        0.09004596379627       -0.72501866603813
C            3.33035200065996        0.24580989667704       -0.62684942087738
C            0.14976949040220       -1.44728695798420       -1.31439112027851
C           -1.21590203182248       -1.27986681578810       -1.21466328888161
H           -7.10259017157190        5.92015274988563       -1.66249817604741
H           -5.41782786108892        5.42283024478624       -1.79735934165648
H           -6.69105636664960        4.38653953188858       -2.43645626692546
H           -8.16675979394345        3.46834503288027        0.88335205913877
H           -8.63494017975514        4.86496731583256       -0.08025409102980
H           -8.36933925194023        3.31579402941612       -0.87135384989600
H           -6.81699820664586        6.16608920563765        0.87614640735687
H           -5.13417226958524        5.66610159038971        0.73176439312092
H           -6.21633232347195        4.79771527309094        1.81777461733128
H           -3.87541033712373        4.34802996018684       -0.56881159653206
H           -2.28164567335037        2.51216267548439       -0.56985669515221
H           -7.13846661293420        1.63051567187918        0.00494296634776
H           -7.43448971930508       -0.98762052017715        0.25270521690899
H           -9.61873861890263       -3.77656577167881        0.65256367348327
H           -8.86690037503191       -2.35009702759559        1.35711381695617
H           -8.99934171784818       -2.51197181076446       -0.40347440268609
H           -8.34299823123144       -5.45037334583255       -0.56854168832892
H           -6.58944088315506       -5.36532229422231       -0.71236945154445
H           -7.59871011888650       -4.24287367120596       -1.62108940082831
H           -8.14145484738913       -5.19836222941154        1.97734074942233
H           -6.38834993449369       -5.11621214417902        1.82440834316174
H           -7.25778311048147       -3.82228469527513        2.64509172070542
H           -4.85852666164275       -4.41076993408107        0.34392670312228
H           -2.89718117594078       -3.00489096583453        0.05046962380187
H           -1.28580889798827        1.12192535517919        1.16313864841232
H            1.14490926124013        0.83887197263439        0.96173136452098
H            2.39332447461731       -2.99211761625696       -0.82833875364198
H            4.83767312246003       -3.26823158055961       -1.01989661331212
H            9.72748755692677       -0.22567179129721        1.57364386680177
H           12.02990479128846        0.42292277369667        2.09713712423826
H           13.81290672047175        0.15959465201921        0.41363260030134
H           13.27939102361898       -0.78317195803204       -1.80448852758095
H           10.94811568824254       -1.42529391307860       -2.34081475280321
H            6.29371003074555       -0.61470619822872        1.88267868867838
H            6.02679254850371        1.32704557782590        3.38462373188309
H            7.10687819493956        3.47471639244867        2.82960414595438
H            8.45071228558088        3.68266333318706        0.77111296964645
H            8.71210687841087        1.74351166990428       -0.73510204813498
H            5.33191120307176        0.96453018969582       -0.72866737986793
H            2.91488104464982        1.23998620978695       -0.55122387586672
H            0.54747559393446       -2.15844247815319       -2.02312242835328
H           -1.88226534490689       -1.85612187551965       -1.83884663435946
