  92
       -131.68569381
 C         -7.4878276068        4.9488975404       -1.8877092458
 C         -7.6038726199        4.3273912869       -0.4886180760
 C         -9.0646304212        3.9249150555       -0.2672046652
 C         -7.2331489650        5.3698745312        0.5755942671
 C         -6.6498215137        3.1458685199       -0.3880466306
 C         -5.2760985085        3.3709784143       -0.5503653128
 C         -4.3364934671        2.3632860633       -0.4745861838
 C         -4.7820715791        1.0757621781       -0.2192502249
 C         -6.1614590643        0.8172320323       -0.0780223559
 C         -7.0850155674        1.8513168351       -0.1582003972
 C         -6.2922371123       -0.6001203015        0.1191467241
 C         -7.3851640819       -1.4292143890        0.3359078845
 C         -7.1915716642       -2.7881125434        0.5202265376
 C         -8.3410284117       -3.7570642789        0.7571830743
 C         -9.7053294737       -3.0619087843        0.7598059424
 C         -8.3470271886       -4.8123463892       -0.3578256455
 C         -8.1533916214       -4.4403063854        2.1191691389
 C         -5.8819753488       -3.2866971513        0.4968320564
 C         -4.7781431706       -2.4865237753        0.2842437430
 C         -4.9866239219       -1.1319503112        0.0766085337
 N         -4.0788281392       -0.1099047041       -0.1256091449
 C         -2.6916100861       -0.2516838438       -0.2206372810
 C         -1.8469309567        0.5658822119        0.5265488709
 C         -0.4782034189        0.4262856135        0.4259489150
 C          0.0858706337       -0.5373084669       -0.4090451301
 C          1.5425535979       -0.6872872167       -0.5070478591
 C          2.1267556162       -1.9498876789       -0.6129842660
 C          3.4951088861       -2.0904693767       -0.6968253747
 C          4.3236570762       -0.9684956735       -0.6724640978
 C          5.7567813080       -1.1674972376       -0.7754013112
 N          6.3218391475       -2.1283180152       -1.4617161438
 N          7.6436107934       -1.9966324835       -1.3687434955
 C          7.9085623566       -0.9563422185       -0.6202739251
 C          9.2478839433       -0.5202745485       -0.2665088316
 C          9.5458468466        0.0364793429        0.9753036842
 C         10.8407611936        0.4245186150        1.2656626117
 C         11.8482421394        0.2567674696        0.3305356060
 C         11.5610226623       -0.3181521168       -0.8974083975
 C         10.2702061223       -0.7078779766       -1.1961030351
 N          6.7302059240       -0.3775124487       -0.2073574724
 C          6.5610993285        0.7542412806        0.6084379735
 C          5.8103675256        0.6588171508        1.7751979102
 C          5.6483864275        1.7755131974        2.5740091057
 C          6.2336063783        2.9795521484        2.2175678718
 C          6.9820146281        3.0699733558        1.0553015789
 C          7.1472756806        1.9618598710        0.2452451543
 C          3.7461575571        0.2971763592       -0.5915003234
 C          2.3754705851        0.4305489178       -0.5059581632
 C         -0.7679107091       -1.3547233346       -1.1485825864
 C         -2.1373154374       -1.2125015027       -1.0632489446
 H         -6.4825011540        5.3152938188       -2.0767809909
 H         -7.7288147677        4.2087541983       -2.6483285734
 H         -8.1789219471        5.7835539857       -1.9871499214
 H         -9.2044946945        3.4873612893        0.7187987928
 H         -9.6985534405        4.8069052902       -0.3366974305
 H         -9.3938559318        3.2156307096       -1.0231855900
 H         -7.9183862108        6.2139114743        0.5289397623
 H         -6.2238305576        5.7446877665        0.4308454382
 H         -7.2940446816        4.9297900731        1.5688713225
 H         -4.9239478346        4.3718292993       -0.7493450222
 H         -3.2886224003        2.5764789511       -0.6248631877
 H         -8.1304869856        1.6179228154       -0.0445737585
 H         -8.3681916088       -0.9893787557        0.3610525147
 H        -10.4877354726       -3.7993690417        0.9283940942
 H         -9.7655032465       -2.3216673046        1.5542991836
 H         -9.8998370894       -2.5785580164       -0.1948257288
 H         -9.1745302204       -5.5044085077       -0.2155725106
 H         -7.4236225855       -5.3845664201       -0.3678217814
 H         -8.4607613737       -4.3325766366       -1.3277641110
 H         -8.9820193882       -5.1172810703        2.3166834441
 H         -7.2314335038       -5.0138151440        2.1527072279
 H         -8.1195853557       -3.6951123623        2.9112563605
 H         -5.7145806323       -4.3412563382        0.6550677064
 H         -3.7840148619       -2.9079156205        0.2934492137
 H         -2.2726913893        1.2959957092        1.1985948270
 H          0.1645011560        1.0523483499        1.0274129880
 H          1.4999958758       -2.8292499462       -0.6075444258
 H          3.9492702246       -3.0653898216       -0.7803692099
 H          8.7747720119        0.1501008888        1.7231700318
 H         11.0637383224        0.8560642517        2.2304885583
 H         12.8569852495        0.5649570242        0.5623523110
 H         12.3473914636       -0.4632491285       -1.6231577327
 H         10.0294560421       -1.1641356927       -2.1434626566
 H          5.3608582419       -0.2854816348        2.0451395980
 H          5.0664849902        1.7023948650        3.4803083221
 H          6.1067512678        3.8477866262        2.8461389657
 H          7.4373621276        4.0076240050        0.7748161045
 H          7.7270561298        2.0218364913       -0.6640342415
 H          4.3640399375        1.1828312651       -0.6188511344
 H          1.9418645148        1.4189989288       -0.4652006569
 H         -0.3514715294       -2.0881227901       -1.8229787449
 H         -2.7878795634       -1.8310430001       -1.6632124968
