52
 energy: -75.461163978754 gnorm: 0.000033212595 xtb: 6.7.1 (edcfbbe)
C           -5.65771299641340        1.68734927630743       -0.04682566190597
C           -4.98205205092028        0.93743980098185       -0.99556834661916
C           -3.60116940933374        0.87046958168212       -0.97662493209281
C           -2.87442946497585        1.55576986915782       -0.00715927536232
C           -1.39995095894858        1.51254409376710        0.01182508993547
C           -0.68973226294689        2.70887731922464        0.01027601509565
C            0.68976705801552        2.70887236154119       -0.01004521811203
C            1.39997591177586        1.51253282319220       -0.01170186113659
C            2.87445484928844        1.55575074914908        0.00727251777704
C            3.60120741015073        0.87034101972075        0.97665158833971
C            4.98208952865371        0.93730180760537        0.99557998817023
C            5.65773907753901        1.68731393317330        0.04691100068569
C            4.94312831193293        2.37902033376044       -0.91682809501792
C            3.56141369531587        2.31874848920267       -0.93310541099663
C            0.69955552401554        0.30090447266272       -0.00348704059728
C            1.43868000094734       -0.97927861068829       -0.01013224765722
C            1.25666941259426       -1.90961022420566        1.00831182556503
C            1.95579354990321       -3.10255420788129        1.00120122701883
C            2.84139489590856       -3.38432683725304       -0.02566737087075
C            3.02685864864353       -2.46496466360549       -1.04468270056091
C            2.33315830222517       -1.26891914134612       -1.03584030451381
C           -0.69954200958664        0.30091060731167        0.00351568945952
C           -1.43868651380249       -0.97926170628420        0.01006907093742
C           -1.25669734518212       -1.90952468608995       -1.00844124764537
C           -1.95584826556886       -3.10245348805141       -1.00141525307494
C           -2.84145532533206       -3.38427997590940        0.02543359643316
C           -3.02689591920029       -2.46498767929111        1.04451624030372
C           -2.33316861889610       -1.26895731283050        1.03575858538733
C           -3.56139854516448        2.31866532331362        0.93329356213619
C           -4.94311374998317        2.37894354188203        0.91700279879044
H           -6.73699895118480        1.73479004150968       -0.06043595697858
H           -5.53352822126031        0.40211837201504       -1.75522183899363
H           -3.07927034105728        0.29184891896217       -1.72455802960246
H           -1.23120170497554        3.64400296646568        0.00613567752268
H            1.23124423695061        3.64399340574960       -0.00583055371287
H            3.07932047223655        0.29163502133846        1.72452696524344
H            5.53357471776495        0.40190596661474        1.75517484060439
H            6.73702696004262        1.73477113756896        0.06052610972842
H            5.46412741934722        2.96800456024124       -1.65833323282995
H            3.00593877146485        2.85307451402519       -1.69132481552934
H            0.57199783659668       -1.68851654083340        1.81480173980653
H            1.80891791127819       -3.81476350922939        1.80063380646478
H            3.38594504366394       -4.31744634246614       -0.03143181857572
H            3.71565120838592       -2.67980456926703       -1.84925432591426
H            2.47585519863712       -0.55433300991108       -1.83423374210325
H           -0.57202206343787       -1.68838916559325       -1.81491646578173
H           -1.80899224295445       -3.81460707547954       -1.80090090157556
H           -3.38602935884143       -4.31738594101662        0.03112937025496
H           -3.71568949852986       -2.67987119113444        1.84907527765215
H           -2.47584638485075       -0.55442703061118        1.83420532370132
H           -3.00593224540242        2.85291819088649        1.69157068624218
H           -5.46412250453384        2.96784440996819        1.65856705450663
