  52
        -75.32390789
 C         -5.6571493534        1.6332459127       -0.3084404234
 C         -4.9568639974        2.6010856744        0.4115928639
 C         -3.5899889962        2.5563708186        0.5020135031
 C         -2.8421929901        1.5053663548       -0.0980613219
 C         -1.4324428774        1.4397873774        0.0642643537
 C         -0.6715039343        2.6563109444        0.1339538194
 C          0.6737428482        2.6564062639        0.0296892981
 C          1.4322364624        1.4359977311        0.0151439792
 C          2.8523447335        1.5004223917        0.1127384469
 C          3.6271649098        0.5403795573        0.8136639033
 C          4.9976776411        0.6125659044        0.8395529536
 C          5.6704986271        1.6378507166        0.1805344010
 C          4.9321092610        2.6126081310       -0.4880919351
 C          3.5615584649        2.5616848632       -0.5093566659
 C          0.6896123225        0.2024186515        0.0087769645
 C          1.4278776071       -1.0692714455       -0.0747299107
 C          1.2484147469       -2.0776889122        0.8715513881
 C          1.9500517547       -3.2630511341        0.7727363208
 C          2.8354974588       -3.4659829212       -0.2746227423
 C          3.0201496175       -2.4711874170       -1.2203655369
 C          2.3267071703       -1.2802575578       -1.1203399092
 C         -0.6866767822        0.2009704359        0.0425587571
 C         -1.4280037681       -1.0670233932        0.1059620311
 C         -1.2235534281       -2.0818159639       -0.8301946179
 C         -1.9361584038       -3.2614788431       -0.7518769491
 C         -2.8589808084       -3.4557520850        0.2648411606
 C         -3.0690663436       -2.4563700534        1.2005043407
 C         -2.3654237845       -1.2703536266        1.1205103646
 C         -3.5798644700        0.5516533144       -0.8523278742
 C         -4.9464173616        0.6193944095       -0.9469129947
 H         -6.7322675190        1.6800049120       -0.3837256771
 H         -5.5000891400        3.3919773365        0.9090421504
 H         -3.0765250309        3.2913847117        1.1028229814
 H         -1.2017763497        3.5946651547        0.1763749671
 H          1.2096615539        3.5926403395        0.0470209592
 H          3.1270530078       -0.2235489736        1.3856800650
 H          5.5594276690       -0.1270121223        1.3921198858
 H          6.7480966155        1.6870397302        0.1999359679
 H          5.4457135885        3.4133924269       -1.0009104386
 H          3.0132685474        3.3028102173       -1.0709875966
 H          0.5689582198       -1.9182662450        1.6960136116
 H          1.8091898718       -4.0326226121        1.5177467156
 H          3.3805789957       -4.3950455417       -0.3509698743
 H          3.7091235762       -2.6235497727       -2.0384278517
 H          2.4668930445       -0.5073591202       -1.8621802575
 H         -0.5194672609       -1.9292016972       -1.6346751016
 H         -1.7748801713       -4.0340263601       -1.4895833185
 H         -3.4127884907       -4.3807363806        0.3245273347
 H         -3.7867643970       -2.6014181192        1.9947535443
 H         -2.5258089059       -0.4953740907        1.8558639568
 H         -3.0475625180       -0.1984867257       -1.4135453208
 H         -5.4761970487       -0.1131746239       -1.5388315382
