  114
       -154.43636334
 C         10.2375517177        3.5684484890        0.1595041918
 C          8.8091559785        4.1199437080        0.1715015462
 C          8.6415882743        5.0347570514       -1.0500947783
 C          8.6245474848        4.9341935736        1.4601655288
 C          7.7577104805        3.0219094458        0.1189186610
 C          6.4028746652        3.3811059681        0.1289091475
 C          5.3810631508        2.4553751134        0.0800312109
 C          5.7221630182        1.1122744473        0.0080740602
 C          7.0795334818        0.7227758995        0.0197455639
 C          8.0864682487        1.6751723393        0.0713665999
 C          7.0880470574       -0.7149427743       -0.0140245040
 C          8.1065872049       -1.6560285095       -0.0373004147
 C          7.7941954065       -3.0064395843       -0.0912308306
 C          8.8588237878       -4.0926363817       -0.1139563899
 C         10.2795727958       -3.5259231499       -0.0431663826
 C          8.7302707725       -4.8957706079       -1.4162329761
 C          8.6570093228       -5.0213370112        1.0919662113
 C          6.4442350978       -3.3806741367       -0.1387710835
 C          5.4112193850       -2.4664018264       -0.1177412302
 C          5.7352548929       -1.1195692180       -0.0370185550
 N          4.9217093775       -0.0082636544       -0.0247526507
 C          3.5178016809       -0.0163988234       -0.0319556883
 C          2.8360166072       -0.8245018792        0.8665023602
 C          1.4147993736       -0.8516593870        0.8767112651
 C          0.6967600558       -1.6546144302        1.7672917234
 C         -0.6916709348       -1.6565387132        1.7678817389
 C         -1.4126215509       -0.8557090614        0.8779551435
 C         -2.8343022237       -0.8320429261        0.8695745686
 C         -3.5182304258       -0.0237563326       -0.0262119082
 N         -4.9223589619       -0.0138053427       -0.0171458732
 C         -5.7398405394       -1.1217983156       -0.0418034477
 C         -5.4201982054       -2.4691015279       -0.1310016043
 C         -6.4565210422       -3.3792552653       -0.1651808589
 C         -7.8053508880       -3.0001487015       -0.1230498175
 C         -8.8740538972       -4.0820059894       -0.1605302757
 C         -8.7338109647       -4.8844087151       -1.4620461963
 C         -8.6899012853       -5.0126254491        1.0467554096
 C        -10.2933145330       -3.5097452506       -0.1062948955
 C         -8.1130613494       -1.6491248393       -0.0583673328
 C         -7.0912237283       -0.7120869847       -0.0211220488
 C         -7.0773955761        0.7252170320        0.0266660793
 C         -8.0803648475        1.6814396839        0.0845851352
 C         -7.7458483092        3.0261524788        0.1482437846
 C         -8.7926951794        4.1278274436        0.2137780959
 C         -8.6268530428        4.8985241137        1.5313852528
 C         -8.5992683152        5.0810443076       -0.9742074169
 C        -10.2232440126        3.5846673129        0.1567732627
 C         -6.3895589232        3.3794528552        0.1680884109
 C         -5.3716372362        2.4499529367        0.1114234188
 C         -5.7184633539        1.1093053235        0.0236515268
 C         -2.8368893074        0.7785934022       -0.9300402261
 C         -1.4155367657        0.7976004517       -0.9476962134
 C         -0.6974249650        1.5970347003       -1.8413812455
 C          0.6910037080        1.5986488639       -1.8421642577
 C          1.4119783350        0.8010366577       -0.9492613637
 C          2.8336441213        0.7843960366       -0.9344154122
 C          0.7049054478       -0.0267382050       -0.0364035863
 C         -0.7056978947       -0.0286423325       -0.0357016137
 H         10.4291604472        2.9977653252       -0.7461430459
 H         10.4201190881        2.9369435366        1.0258630890
 H         10.9450545236        4.3945112355        0.1914737603
 H          8.7547424547        4.4603332756       -1.9672597741
 H          7.6626382711        5.5055361175       -1.0620604553
 H          9.3962384550        5.8183909579       -1.0377745879
 H          8.7158235005        4.2863329091        2.3296044635
 H          9.3851884003        5.7094085088        1.5251880941
 H          7.6492844653        5.4115716337        1.4925651437
 H          6.1334583937        4.4247606189        0.1814510303
 H          4.3488790647        2.7700598221        0.1085241955
 H          9.1111523788        1.3438940430        0.0792153481
 H          9.1273069349       -1.3132007982       -0.0175446781
 H         10.9966826071       -4.3442436320       -0.0520398225
 H         10.4893838969       -2.8874741656       -0.8981531393
 H         10.4289006228       -2.9585689311        0.8725575489
 H          9.4975909489       -5.6658499939       -1.4587196835
 H          7.7597647303       -5.3779998436       -1.4909840460
 H          8.8512451577       -4.2392534182       -2.2754179801
 H          8.7254202232       -4.4541308457        2.0179673079
 H          9.4234524639       -5.7933908862        1.1022686033
 H          7.6859979769       -5.5072507300        1.0613834987
 H          6.1879411188       -4.4272313738       -0.1987091980
 H          4.3837126952       -2.7926282674       -0.1734589354
 H          3.3804034700       -1.4160487105        1.5860376452
 H          1.2357979542       -2.2817864051        2.4625000498
 H         -1.2282799564       -2.2849692094        2.4638759636
 H         -3.3762127221       -1.4265555825        1.5885976573
 H         -4.3934629116       -2.7984262674       -0.1829240814
 H         -6.2040551941       -4.4263470810       -0.2315569042
 H         -7.7665095360       -5.3747042129       -1.5243346237
 H         -8.8377850650       -4.2258754921       -2.3219094099
 H         -9.5066846104       -5.6481924505       -1.5160712913
 H         -7.7188133922       -5.4990646495        1.0287132007
 H         -8.7704274900       -4.4465530247        1.9724795793
 H         -9.4571054951       -5.7839915433        1.0455648515
 H        -11.0135134334       -4.3251137033       -0.1278918255
 H        -10.4889526281       -2.8671064231       -0.9615290961
 H        -10.4529108409       -2.9454273220        0.8095437187
 H         -9.1326502630       -1.3028497108       -0.0404055555
 H         -9.1065777373        1.3547950418        0.0834847409
 H         -8.7446131448        4.2246776340        2.3775255747
 H         -7.6463424630        5.3612219505        1.5994298964
 H         -9.3791662301        5.6809552146        1.6051211706
 H         -9.3555670261        5.8628480925       -0.9536703260
 H         -8.6909956261        4.5360592554       -1.9114559386
 H         -7.6218049869        5.5541272502       -0.9497322130
 H        -10.3969713440        3.0379796527       -0.7671996741
 H        -10.9270580189        4.4136435386        0.1943297211
 H        -10.4287161338        2.9327239140        1.0025460782
 H         -6.1158664514        4.4210806184        0.2361678106
 H         -4.3380238101        2.7593580590        0.1470388759
 H         -3.3819142536        1.3750287761       -1.6451143085
 H         -1.2363363226        2.2232973411       -2.5375510356
 H          1.2276544759        2.2259808956       -2.5391180952
 H          3.3757055550        1.3809538481       -1.6515742344
