  118
       -184.39702481
 O         -0.0578699073       -4.5060542688       -0.6749161213
 C          0.0189838323       -3.2532194449       -0.6096758790
 C         -1.1960294852       -2.4530101840       -0.5961873575
 C         -1.2881449890       -1.1850087219        0.0049599724
 C         -2.4830278368       -0.5052477925        0.0325067875
 C         -3.6294365147       -1.0714044815       -0.5276592677
 N         -4.8651535025       -0.3675234935       -0.4911128283
 C         -5.0403074841        0.7300374889       -1.3112056047
 C         -4.0120906923        1.1405222991       -2.1705063909
 C         -4.1669398450        2.2454587332       -2.9782988401
 C         -5.3518414623        2.9661962741       -2.9587340111
 C         -6.3831624912        2.5511566536       -2.1376773235
 C         -6.2475622446        1.4409355654       -1.3176291504
 C         -7.4274507229        1.0016608961       -0.4924439883
 C         -8.5979341590        0.6743322962       -1.4043206275
 C         -8.6739329263       -0.3014555488       -2.3726123170
 C         -9.8522330251       -0.4229984521       -3.0974137972
 C        -10.9260959894        0.4190257585       -2.8523157891
 C        -10.8523185968        1.4022159062       -1.8783706748
 C         -9.6800341191        1.5283633400       -1.1518541811
 C         -9.3062631471        2.4467880766       -0.0867838727
 C        -10.0119922132        3.4687915456        0.5260187014
 C         -9.3922949072        4.1906477662        1.5338371964
 C         -8.0939355150        3.8995911541        1.9235411353
 C         -7.3808724849        2.8762814985        1.3127453510
 C         -7.9935898549        2.1571696364        0.3110517268
 C         -7.1158528539       -0.1689277185        0.4041975006
 C         -8.0814476185       -0.6212049839        1.2629985614
 C         -7.8593524674       -1.7045319378        2.1364361774
 C         -8.8457311758       -2.1784096354        3.0194587590
 C         -8.5820140407       -3.2287516605        3.8598210637
 C         -7.3219704940       -3.8448787758        3.8512402782
 C         -6.3414667969       -3.4061995128        3.0043443026
 C         -6.5827879014       -2.3274985529        2.1245748264
 C         -5.6009460240       -1.8555068841        1.2438007391
 C         -5.8481854551       -0.8022905690        0.3737144925
 C         -3.5647036633       -2.3489175516       -1.0905124320
 C         -2.3747281347       -3.0297626263       -1.1111509172
 C          1.3216129900       -2.6086358730       -0.5427510345
 C          1.5710472335       -1.3066952631       -1.0109757918
 C          2.8370693726       -0.7727024891       -0.9601906257
 C          3.8990290625       -1.5232143136       -0.4531148949
 N          5.2024550207       -0.9547458132       -0.3948662458
 C          6.1554764757       -1.3675344055       -1.3052942428
 C          5.8331244359       -2.3221904441       -2.2797010387
 C          6.7784965578       -2.7523367387       -3.1843978811
 C          8.0662006913       -2.2376418547       -3.1493506551
 C          8.3868071239       -1.2777051769       -2.2080976957
 C          7.4497913571       -0.8312445189       -1.2882264528
 C          7.8504852200        0.2388123905       -0.3085248176
 C          8.3603510448        1.4652039601       -1.0448462033
 C          7.6737067993        2.2790000978       -1.9176715645
 C          8.3413625172        3.3601843297       -2.4779438436
 C          9.6682120532        3.6139342969       -2.1659438689
 C         10.3622119045        2.7962581339       -1.2881629256
 C          9.7019122708        1.7164336331       -0.7260541874
 C         10.1539590498        0.6977216375        0.2095893504
 C         11.3812717724        0.5000746375        0.8200875350
 C         11.5277681502       -0.5763719863        1.6805983800
 C         10.4711218827       -1.4392386257        1.9280995444
 C          9.2376643006       -1.2457965089        1.3199158336
 C          9.0888472026       -0.1770502840        0.4647022393
 C          6.7403066902        0.6173220948        0.6380383471
 C          6.9796286460        1.5695908255        1.5927264028
 C          5.9964824258        1.9615572877        2.5227997388
 C          6.2303150275        2.9447105309        3.5005599588
 C          5.2478357853        3.2880833073        4.3929205532
 C          3.9950325621        2.6600009525        4.3441364422
 C          3.7373190956        1.6990686625        3.4049562828
 C          4.7272206145        1.3256274157        2.4689414037
 C          4.4941537581        0.3500435679        1.4910723560
 C          5.4680383846       -0.0023813657        0.5662575373
 C          3.6769738850       -2.8344120218       -0.0251884965
 C          2.4155263729       -3.3695895374       -0.0831451639
 H         -0.4250594954       -0.7548587874        0.4898906125
 H         -2.5511099418        0.4654511536        0.5038239641
 H         -3.0920829177        0.5787350191       -2.2015187011
 H         -3.3599172420        2.5446229715       -3.6298984873
 H         -5.4746640344        3.8347944765       -3.5867859235
 H         -7.3185535841        3.0914570687       -2.1307786296
 H         -7.8373083738       -0.9572129415       -2.5658616752
 H         -9.9323977315       -1.1821589927       -3.8612335212
 H        -11.8324225289        0.3066378800       -3.4291981751
 H        -11.6911016049        2.0561956848       -1.6915514216
 H        -11.0235650370        3.6987428287        0.2260619117
 H         -9.9277666957        4.9909715283        2.0233671394
 H         -7.6316999649        4.4746275309        2.7121588993
 H         -6.3698716822        2.6488676148        1.6183395744
 H         -9.0463238686       -0.1341546121        1.2787193318
 H         -9.8141231088       -1.6988327376        3.0233352486
 H         -9.3437935716       -3.5888210850        4.5355469383
 H         -7.1322768367       -4.6710639424        4.5205805450
 H         -5.3696071760       -3.8777246366        2.9918718767
 H         -4.6305328320       -2.3269361941        1.2563389725
 H         -4.4605326072       -2.7883036332       -1.5054293268
 H         -2.3072436539       -4.0203863724       -1.5339945030
 H          0.7724370642       -0.7316475294       -1.4545233096
 H          3.0260289023        0.2273260938       -1.3250826662
 H          4.8314656485       -2.7194092673       -2.3223219973
 H          6.5083719246       -3.4915989446       -3.9230094980
 H          8.8098460719       -2.5753025327       -3.8543155287
 H          9.3820297693       -0.8583732754       -2.1813805670
 H          6.6398301346        2.0821010607       -2.1619853279
 H          7.8204357782        4.0110121945       -3.1644971973
 H         10.1672449793        4.4608104501       -2.6139448936
 H         11.3957640279        2.9974738285       -1.0484952997
 H         12.2069662202        1.1695105069        0.6296885012
 H         12.4779700338       -0.7462577655        2.1654771012
 H         10.6083491278       -2.2717468819        2.6020924199
 H          8.4148591899       -1.9182981385        1.5146606829
 H          7.9528208249        2.0374346285        1.6415937289
 H          7.1983764219        3.4236116525        3.5353097417
 H          5.4332738601        4.0444832064        5.1412576323
 H          3.2334582606        2.9417769168        5.0564689434
 H          2.7738524068        1.2118900693        3.3630231996
 H          3.5314645880       -0.1368835701        1.4681965621
 H          4.5071612494       -3.4146671783        0.3514136595
 H          2.2253230595       -4.3827842729        0.2361546942
