  66
        -93.70159273
 C          6.5115620313       -1.8748398473        0.9621998271
 C          6.1610362781       -0.7355257949       -0.0034553796
 C          7.1441254399       -0.7500599733       -1.1718597799
 O          4.8440071728       -0.9978027307       -0.4891611978
 B          3.9639443771       -0.1792913959        0.1614013109
 C          2.4155348257       -0.2834800757        0.0247600691
 C          1.5637367718        0.5789885905        0.7281892472
 C          0.1992145506        0.4872523578        0.6197918477
 C         -0.4054278241       -0.4985129159       -0.1935111633
 C         -1.8205725160       -0.5677715945       -0.3057513231
 C         -2.6127321805        0.6298696992        0.0345713872
 C         -2.4052064889        1.8160333922       -0.7293095334
 C         -1.8479916732        1.7395230499       -2.0233811025
 C         -1.6143333969        2.8745655105       -2.7640549200
 C         -1.9054841575        4.1289981788       -2.2427296271
 C         -2.4236160642        4.2298234415       -0.9583539176
 C         -2.6717832637        3.1006046207       -0.2111856232
 C         -3.5487864556        0.5209798086        1.1076869573
 C         -4.7137719159        1.3118705401        1.1739809275
 C         -5.6209538210        1.1499448335        2.1971680827
 C         -5.4061949728        0.2038451191        3.1902554916
 C         -4.2739595118       -0.5991455706        3.1334389642
 C         -3.3665210443       -0.4543032147        2.1099585573
 C         -2.5388394564       -1.7352390255       -0.7173986411
 C         -2.0432247398       -3.0362352531       -0.5032040449
 C         -2.7792612999       -4.1417082630       -0.8682419339
 C         -4.0274304678       -3.9974111121       -1.4580868096
 C         -4.5433692119       -2.7236432364       -1.6587206523
 C         -3.8214947146       -1.6124701111       -1.2880353737
 C          0.4562070087       -1.3467578035       -0.9251559589
 C          1.8202432243       -1.2352721495       -0.8129906700
 O          4.5977292589        0.7375667974        0.9517759520
 C          6.0037478977        0.6531593271        0.7178840720
 C          6.3751481370        1.8395359476       -0.1809230708
 C          6.7465942135        0.7799665341        2.0461315840
 H          6.4329990807       -2.8181333797        0.4260889508
 H          7.5223696467       -1.7693466434        1.3452499151
 H          5.8053337525       -1.9003176067        1.7889052801
 H          7.1838941527       -1.7550105926       -1.5852545360
 H          8.1377185711       -0.4702577829       -0.8315930512
 H          6.8277548978       -0.0755906269       -1.9614248454
 H          2.0069135358        1.3268193106        1.3689186593
 H         -0.4355544270        1.1542071202        1.1856490815
 H         -1.6282927403        0.7676593434       -2.4401474793
 H         -1.1995368452        2.7898406602       -3.7581293821
 H         -1.7180709413        5.0182690532       -2.8252889552
 H         -2.6263658854        5.2042463576       -0.5368613023
 H         -3.0272037879        3.1975563782        0.8035123361
 H         -4.9204865626        2.0155072938        0.3819364825
 H         -6.5128595793        1.7599634368        2.2216601790
 H         -6.1188925994        0.0851119451        3.9923546265
 H         -4.1056243292       -1.3441318085        3.8977974928
 H         -2.4841611085       -1.0759396604        2.0783485102
 H         -1.0980836231       -3.1652677162        0.0020398656
 H         -2.3842831265       -5.1306873157       -0.6842069434
 H         -4.5972203925       -4.8675864609       -1.7470378893
 H         -5.5179242118       -2.6039913825       -2.1100381271
 H         -4.2245844779       -0.6252537593       -1.4595524976
 H          0.0305687806       -2.0548459396       -1.6210174823
 H          2.4635919817       -1.8858204568       -1.3870395462
 H          7.4437615545        1.8685891627       -0.3728877659
 H          5.8329419819        1.7848037020       -1.1221646957
 H          6.0805567102        2.7585779213        0.3211649427
 H          6.5829539313        1.7775352869        2.4465955791
 H          6.3784883697        0.0629345891        2.7733829012
 H          7.8128553843        0.6313775357        1.8972143609
