  112
  -187.434755810800       0.847728964769518      !
 N         -0.8631384237       -2.2308866875        2.7408416586
 C         -0.6212304949       -1.4196129767        1.9497179565
 C         -0.3429659226       -0.4525937761        0.9967663953
 C          1.0057087069       -0.1178090667        0.6608346259
 N          2.0522106197       -0.8368036372        1.2561191824
 C          2.3308533964       -2.1679750293        1.0399700923
 C          1.5629539063       -3.1379563216        0.4108334406
 C          2.1066587603       -4.4001003548        0.2713584973
 C          3.3874587267       -4.6940325161        0.7340344934
 C          4.1619208152       -3.7286436744        1.3518225978
 C          3.6341347520       -2.4575103902        1.5105570365
 C          4.1525654448       -1.2324151628        2.0554957695
 C          5.3583343950       -0.8740357070        2.6365682350
 C          5.5210537287        0.4299929437        3.0722413741
 C          4.4882734191        1.3563807178        2.9675785576
 C          3.2784076556        1.0217126477        2.3872794588
 C          3.1352517036       -0.2656224159        1.8931497276
 C          1.2837892739        0.9251621642       -0.2025799069
 N          2.6126046433        1.2268261215       -0.5324117036
 C          3.2631832238        2.3982438687       -0.2077651145
 C          2.7426723228        3.6102396741        0.2229512125
 C          3.6311162176        4.6238067560        0.5229006324
 C          5.0086403420        4.4404015678        0.4124217753
 C          5.5365040795        3.2307658642        0.0023156481
 C          4.6615051939        2.2014873727       -0.3096559341
 C          4.8474850236        0.8424345222       -0.7231274587
 C          5.9425969246        0.0172595793       -0.9177887506
 S          7.6160598777        0.4209939217       -0.6634767720
 C          8.0971125094       -1.2168836575       -1.0735090530
 C          9.3921261504       -1.7024734869       -1.0780878746
 C          9.5957127977       -3.0285047841       -1.4167735021
 C          8.5219789949       -3.8508407845       -1.7421066969
 C          7.2309173029       -3.3624179482       -1.7381326520
 C          6.9999409901       -2.0299587949       -1.4050310631
 C          5.7529891091       -1.3189096699       -1.3230959449
 C          4.4670842721       -1.7945179370       -1.5913814129
 C          3.3629764933       -0.9978375572       -1.3810547523
 C          3.5581564944        0.2897005617       -0.8861595335
 C          0.2301788665        1.7050436346       -0.7772510731
 C          0.4947840787        2.6285073746       -1.7764618724
 N          0.7150284935        3.3923363360       -2.6190641290
 C         -1.1145023481        1.3978598635       -0.4069574991
 N         -2.1672341559        2.1473181221       -0.9492633347
 C         -3.2911709766        1.6111888092       -1.5420960229
 C         -3.4919056317        0.3305858215       -2.0348988477
 C         -4.7326776054        0.0336689425       -2.5690367168
 C         -5.7394400620        0.9914001132       -2.6318910975
 C         -5.5196436307        2.2890552460       -2.2008156447
 C         -4.2838749321        2.6089598185       -1.6626345807
 C         -3.7048556367        3.8174617531       -1.1395057248
 C         -4.1795663347        5.1077559367       -0.9686530247
 C         -3.3468943159        6.0487502521       -0.3890204915
 C         -2.0604343076        5.7121526429        0.0246227407
 C         -1.5684628104        4.4310647690       -0.1295434748
 C         -2.3941357564        3.4862682765       -0.7218827677
 C         -1.3908031892        0.3602901077        0.4611137264
 N         -2.7164283535        0.1417047588        0.8654159743
 C         -3.5413407428        1.1329072874        1.3579873426
 C         -3.2033338983        2.3720845134        1.8788365797
 C         -4.2325694470        3.1912610731        2.3047576090
 C         -5.5612827980        2.7823758264        2.2310749496
 C         -5.8996525468        1.5272081072        1.7570969720
 C         -4.8820187361        0.6904130975        1.3259718227
 C         -4.8450448126       -0.6437143846        0.8030225241
 C         -5.8052809970       -1.5817819926        0.4665790723
 S         -7.5326795802       -1.4071086906        0.6135121398
 C         -7.7726086599       -3.0056877469       -0.0645459708
 C         -8.9949347393       -3.6174079782       -0.2788695078
 C         -9.0081472643       -4.8871570324       -0.8260732894
 C         -7.8186226562       -5.5326106528       -1.1519087383
 C         -6.6011237509       -4.9210781105       -0.9369158886
 C         -6.5597096606       -3.6408754995       -0.3870525593
 C         -5.4209452718       -2.8183122086       -0.0852015610
 C         -4.0650607975       -3.1016986264       -0.2915486355
 C         -3.0939397623       -2.1777458646        0.0165392806
 C         -3.4858289160       -0.9516360302        0.5547120249
 H          0.5725848763       -2.9187602049        0.0467580409
 H          1.5279243762       -5.1755774698       -0.2079475141
 H          3.7789067074       -5.6917070691        0.6036999834
 H          5.1592369275       -3.9558626708        1.6965499007
 H          6.1528504496       -1.5966098503        2.7455406469
 H          6.4569969819        0.7321158097        3.5163513002
 H          4.6342108908        2.3582735477        3.3424241270
 H          2.4748497037        1.7386764125        2.3263255849
 H          1.6805434791        3.7644436344        0.3099774795
 H          3.2509228033        5.5796155813        0.8511710437
 H          5.6696883103        5.2580962253        0.6557255966
 H          6.6026677664        3.0823201421       -0.0724644048
 H         10.2182263110       -1.0577235141       -0.8219223280
 H         10.5983611231       -3.4273666501       -1.4263176157
 H          8.7020546589       -4.8834103546       -2.0001393974
 H          6.3985790934       -4.0028210628       -1.9884525164
 H          4.3409342551       -2.8048719492       -1.9458478035
 H          2.3701997103       -1.3634253564       -1.5880954836
 H         -2.7051374881       -0.4068473016       -2.0137300295
 H         -4.9229942434       -0.9619391551       -2.9417103763
 H         -6.7004489429        0.7200151087       -3.0415224969
 H         -6.2939255530        3.0363588628       -2.2830166702
 H         -5.1796629057        5.3701060229       -1.2783834310
 H         -3.6968943938        7.0602799069       -0.2505622381
 H         -1.4359536320        6.4681211967        0.4764132249
 H         -0.5722707475        4.1791974564        0.1948256552
 H         -2.1743372942        2.6852398754        1.9565853369
 H         -3.9996739525        4.1679641637        2.7009405739
 H         -6.3374859794        3.4533895567        2.5652099767
 H         -6.9278987251        1.2014986429        1.7238452561
 H         -9.9112847902       -3.1090631474       -0.0228035641
 H         -9.9512530683       -5.3817841178       -1.0011923760
 H         -7.8512098129       -6.5239830112       -1.5772601779
 H         -5.6807509924       -5.4253125096       -1.1896935979
 H         -3.7872559231       -4.0570324759       -0.7083277724
 H         -2.0522949684       -2.3966626144       -0.1503344384
  112
  -187.433133331800       0.152271035230482      !
 N         -0.9029907471       -2.0864056507        2.8449012872
 C         -0.6576118283       -1.2949063675        2.0351503430
 C         -0.3683007623       -0.3465088998        1.0665500537
 C          0.9852585692       -0.0334716945        0.7324213132
 N          2.0182953485       -0.7848763687        1.3107446071
 C          2.2575068796       -2.1198325183        1.0701743235
 C          1.4562201883       -3.0576106520        0.4341749517
 C          1.9633782737       -4.3312047959        0.2656827796
 C          3.2413189308       -4.6674867440        0.7067700907
 C          4.0486326974       -3.7345021509        1.3323536155
 C          3.5573615653       -2.4527415297        1.5203963788
 C          4.1150740262       -1.2514759650        2.0795683685
 C          5.3352820536       -0.9373325680        2.6558418648
 C          5.5387606380        0.3540107280        3.1116684792
 C          4.5324807124        1.3114377306        3.0301862533
 C          3.3086848825        1.0211470330        2.4553875951
 C          3.1237840832       -0.2539342149        1.9434181592
 C          1.2801499010        1.0088224142       -0.1255494811
 N          2.6141055659        1.2785091097       -0.4627816084
 C          3.3056037962        2.4221295660       -0.1276326335
 C          2.8281016157        3.6418260307        0.3302790960
 C          3.7522132112        4.6204846092        0.6384116113
 C          5.1218001003        4.3950122371        0.5074660605
 C          5.6062455987        3.1778532291        0.0667031065
 C          4.6954470268        2.1827885115       -0.2532971575
 C          4.8319529173        0.8267870533       -0.6959823316
 C          5.8961137144       -0.0278941270       -0.9320566527
 S          7.5874787564        0.3188516883       -0.7135899162
 C          8.0075275808       -1.3219556152       -1.1764411170
 C          9.2866548574       -1.8447096522       -1.2334992701
 C          9.4401498767       -3.1671020585       -1.6104234569
 C          8.3330661638       -3.9499098659       -1.9213687168
 C          7.0579469025       -3.4243400873       -1.8657890063
 C          6.8772851140       -2.0942587728       -1.4940492609
 C          5.6553709002       -1.3485136753       -1.3611960565
 C          4.3498991756       -1.7795823587       -1.6089411785
 C          3.2764704772       -0.9530089439       -1.3601229235
 C          3.5231606514        0.3182670639       -0.8467991883
 C          0.2400419396        1.8071943683       -0.6988665453
 C          0.5292049143        2.7373302460       -1.6850358986
 N          0.7736163646        3.5069963640       -2.5156051801
 C         -1.1132213535        1.4990176808       -0.3580359449
 N         -2.1521820492        2.2422979528       -0.9328819931
 C         -3.2629293687        1.7018301370       -1.5468385682
 C         -3.4578731370        0.4148371492       -2.0250480787
 C         -4.6868989658        0.1151767150       -2.5837326123
 C         -5.6865387375        1.0769132122       -2.6885615911
 C         -5.4699020305        2.3806875224       -2.2750341727
 C         -4.2464524210        2.7027689006       -1.7105416665
 C         -3.6745159014        3.9171304869       -1.1932399042
 C         -4.1457337703        5.2130952864       -1.0601336700
 C         -3.3236201119        6.1600139300       -0.4755378145
 C         -2.0517810797        5.8233628891       -0.0183503907
 C         -1.5636773266        4.5365303813       -0.1340002148
 C         -2.3777715970        3.5861759801       -0.7338392238
 C         -1.4068616881        0.4615546736        0.5048808132
 N         -2.7391724032        0.2165762201        0.8654550339
 C         -3.6169721211        1.1833109304        1.3120408088
 C         -3.3460690096        2.4473977835        1.8120821241
 C         -4.4203812828        3.2331673415        2.1859826877
 C         -5.7284338206        2.7669959013        2.0858497727
 C         -6.0002188573        1.4862370427        1.6381050700
 C         -4.9367483631        0.6827145182        1.2575940457
 C         -4.8306388862       -0.6619796437        0.7722767833
 C         -5.7404115697       -1.6541156086        0.4495869656
 S         -7.4765306977       -1.5615346392        0.5698488053
 C         -7.6280522236       -3.1928563947       -0.0545594995
 C         -8.8148677267       -3.8739623645       -0.2589574430
 C         -8.7566128202       -5.1612965716       -0.7603043176
 C         -7.5321716626       -5.7559284173       -1.0513447240
 C         -6.3502087017       -5.0749595543       -0.8470871399
 C         -6.3810460466       -3.7759112824       -0.3428962947
 C         -5.2889163595       -2.8873553429       -0.0570322969
 C         -3.9186752181       -3.1103777119       -0.2395919161
 C         -2.9975258480       -2.1334226893        0.0572897137
 C         -3.4542859575       -0.9154242054        0.5612483709
 H          0.4679140771       -2.8057204253        0.0862047548
 H          1.3583347541       -5.0816854614       -0.2209723905
 H          3.6043080667       -5.6725032954        0.5533129957
 H          5.0434047480       -3.9947043749        1.6605039352
 H          6.1092481699       -1.6842097330        2.7465703335
 H          6.4864100759        0.6215690364        3.5530478779
 H          4.7104474324        2.3024731911        3.4195391695
 H          2.5259849727        1.7619916399        2.4120913248
 H          1.7717907550        3.8261903991        0.4335306577
 H          3.4072696432        5.5816138216        0.9890291990
 H          5.8115847172        5.1862238116        0.7584157180
 H          6.6662447598        2.9977003875       -0.0246732647
 H         10.1391670537       -1.2310085287       -0.9877135668
 H         10.4297710335       -3.5944177453       -1.6611007572
 H          8.4742931394       -4.9806821609       -2.2090611272
 H          6.1996345176       -4.0338441815       -2.1048938623
 H          4.1848208425       -2.7781893470       -1.9806166993
 H          2.2683000125       -1.2822613403       -1.5539340766
 H         -2.6767430058       -0.3268851890       -1.9725508868
 H         -4.8732491771       -0.8858225027       -2.9437029466
 H         -6.6383222993        0.8035612917       -3.1176746028
 H         -6.2370291402        3.1307890963       -2.3899161485
 H         -5.1351520873        5.4749758702       -1.4022084801
 H         -3.6704047656        7.1764018733       -0.3673325898
 H         -1.4353004821        6.5841944846        0.4364406654
 H         -0.5788712762        4.2852550513        0.2236549369
 H         -2.3340160033        2.8056255214        1.9127175447
 H         -4.2395919100        4.2287272573        2.5621590186
 H         -6.5413192753        3.4132138737        2.3792611750
 H         -7.0123634984        1.1159721949        1.5863757064
 H         -9.7591059735       -3.4054779514       -0.0294620021
 H         -9.6709762518       -5.7099556155       -0.9262915676
 H         -7.5090265780       -6.7623849761       -1.4408558309
 H         -5.4022073315       -5.5397792163       -1.0717819544
 H         -3.5896132426       -4.0619464178       -0.6266694180
 H         -1.9452202157       -2.3077251408       -0.0916799838
