  112
       -188.09652362
 N         -0.9086004817       -2.0854351846        2.8438265450
 C         -0.6616704478       -1.2942148474        2.0342745348
 C         -0.3705043498       -0.3461520211        1.0659025242
 C          0.9836952449       -0.0329397177        0.7345436833
 N          2.0156643792       -0.7838651506        1.3153900520
 C          2.2556987944       -2.1188654562        1.0758868097
 C          1.4559926811       -3.0570928491        0.4385620243
 C          1.9638044806       -4.3306391812        0.2716851371
 C          3.2408750406       -4.6664420804        0.7156480695
 C          4.0466316314       -3.7330111492        1.3425719312
 C          3.5546629880       -2.4512865537        1.5290299998
 C          4.1108991677       -1.2496600554        2.0888965294
 C          5.3297975325       -0.9349950138        2.6676516886
 C          5.5320012182        0.3565842722        3.1233770031
 C          4.5256771388        1.3137441985        3.0393423097
 C          3.3031823146        1.0229316337        2.4620443997
 C          3.1196728686       -0.2524045775        1.9502094369
 C          1.2801829644        1.0090668986       -0.1232261194
 N          2.6147955923        1.2789228677       -0.4577123324
 C          3.3053103702        2.4228423876       -0.1215578152
 C          2.8265469443        3.6426179106        0.3348238298
 C          3.7497704941        4.6216182741        0.6445286353
 C          5.1196867244        4.3964090137        0.5166103583
 C          5.6053561356        3.1791796659        0.0773912659
 C          4.6954747852        2.1837713299       -0.2441459363
 C          4.8332415637        0.8276181222       -0.6859748266
 C          5.8981028330       -0.0269142379       -0.9194146045
 S          7.5889159752        0.3203140551       -0.6974697660
 C          8.0103339683       -1.3205876208       -1.1587391247
 C          9.2897011627       -1.8430688415       -1.2128405268
 C          9.4443084196       -3.1655818000       -1.5888861499
 C          8.3380739910       -3.9487749809       -1.9018768773
 C          7.0627173192       -3.4234777031       -1.8492464987
 C          6.8809526858       -2.0932842821       -1.4784466819
 C          5.6585846011       -1.3477673438       -1.3485204318
 C          4.3537460571       -1.7792412106       -1.5988820812
 C          3.2795961005       -0.9528134769       -1.3527065824
 C          3.5248927557        0.3187323746       -0.8393834040
 C          0.2411210996        1.8069600431       -0.6991009110
 C          0.5321809531        2.7367539630       -1.6850346808
 N          0.7781931514        3.5061322821       -2.5153979881
 C         -1.1127979341        1.4986111040       -0.3610416096
 N         -2.1506965435        2.2414122046       -0.9384200563
 C         -3.2600014962        1.7004325119       -1.5545298176
 C         -3.4536234482        0.4131962316       -2.0326215008
 C         -4.6813806108        0.1130194001       -2.5938126369
 C         -5.6810155404        1.0744806798       -2.7011815945
 C         -5.4655660321        2.3784764907       -2.2877323535
 C         -4.2434026916        2.7010753795       -1.7207545085
 C         -3.6728558279        3.9157838349       -1.2027330777
 C         -4.1446568657        5.2116944776       -1.0711743535
 C         -3.3240158430        6.1590458940       -0.4852121492
 C         -2.0530812932        5.8228791631       -0.0251620577
 C         -1.5644339082        4.5361119614       -0.1392320379
 C         -2.3770221192        3.5853203263       -0.7404187574
 C         -1.4080463682        0.4614379292        0.5016748192
 N         -2.7410697500        0.2163002580        0.8594963370
 C         -3.6200471312        1.1830165981        1.3037997021
 C         -3.3505074858        2.4473733998        1.8038953355
 C         -4.4257995083        3.2330489351        2.1751678901
 C         -5.7335269251        2.7665329166        2.0724271396
 C         -6.0040566585        1.4855255888        1.6246330259
 C         -4.9395881329        0.6820918360        1.2467341746
 C         -4.8321289944       -0.6627787954        0.7622035012
 C         -5.7409793742       -1.6552592565        0.4379777332
 S         -7.4773734326       -1.5630307501        0.5544824505
 C         -7.6271806158       -3.1946463103       -0.0695717501
 C         -8.8133983392       -3.8761119675       -0.2762283991
 C         -8.7537725675       -5.1636403858       -0.7769149508
 C         -7.5285736089       -5.7581090874       -1.0650853399
 C         -6.3472080842       -5.0767817197       -0.8585793862
 C         -6.3794251534       -3.7775317053       -0.3549950104
 C         -5.2881154058       -2.8886042680       -0.0671614088
 C         -3.9174349386       -3.1113847729       -0.2466932470
 C         -2.9971491160       -2.1340933161        0.0517550624
 C         -3.4552687545       -0.9159918763        0.5542286556
 H          0.4683760296       -2.8055759386        0.0883713518
 H          1.3599779688       -5.0814617341       -0.2159532352
 H          3.6044240226       -5.6714380251        0.5633859597
 H          5.0407585780       -3.9928467749        1.6729600726
 H          6.1037399335       -1.6816551271        2.7603476376
 H          6.4786413079        0.6245451438        3.5666739589
 H          4.7025807223        2.3049822114        3.4286640979
 H          2.5204059385        1.7635768308        2.4167643343
 H          1.7699748223        3.8267802859        0.4357362194
 H          3.4038548734        5.5828128083        0.9940076357
 H          5.8087495893        5.1878843859        0.7687083698
 H          6.6655901419        2.9992345951       -0.0116398101
 H         10.1415432670       -1.2290683323       -0.9654842457
 H         10.4341344677       -3.5926891233       -1.6372663919
 H          8.4801547898       -4.9796337088       -2.1888382606
 H          6.2050597613       -4.0332797578       -2.0899361134
 H          4.1896947154       -2.7780404349       -1.9704957689
 H          2.2719191025       -1.2823798136       -1.5485398966
 H         -2.6724363517       -0.3283232459       -1.9781435335
 H         -4.8667283004       -0.8881721297       -2.9537657329
 H         -6.6318146803        0.8007303244       -3.1322186421
 H         -6.2326184526        3.1283525835       -2.4045684428
 H         -5.1334006538        5.4732039305       -1.4154761823
 H         -3.6712660809        7.1753982233       -0.3781718155
 H         -1.4377518699        6.5840420845        0.4306324758
 H         -0.5803381954        4.2852131518        0.2206358147
 H         -2.3387550720        2.8058773442        1.9065494271
 H         -4.2460461002        4.2288065939        2.5513172918
 H         -6.5471881225        3.4126840923        2.3638285730
 H         -7.0160026796        1.1150047908        1.5708896751
 H         -9.7582340946       -3.4077512688       -0.0489503300
 H         -9.6676516974       -5.7125800716       -0.9446324393
 H         -7.5043619559       -6.7647216586       -1.4541281775
 H         -5.3986203425       -5.5414748053       -1.0810503017
 H         -3.5873249875       -4.0630375980       -0.6326700584
 H         -1.9444866127       -2.3082136583       -0.0948881091
  112
       -188.09629090
 N         -0.8684920143       -2.2299501127        2.7399124921
 C         -0.6250774246       -1.4189484317        1.9489720374
 C         -0.3449956112       -0.4522599466        0.9962173287
 C          1.0043181345       -0.1173020209        0.6630359739
 N          2.0497085603       -0.8358072015        1.2608589513
 C          2.3291209484       -2.1670034876        1.0458597269
 C          1.5627946935       -3.1374234534        0.4154825210
 C          2.1070883820       -4.3994991766        0.2776963163
 C          3.3869622280       -4.6929426807        0.7432364273
 C          4.1598764335       -3.7271183493        1.3622810749
 C          3.6314581721       -2.4560417023        1.5193570926
 C          4.1484376601       -1.2306005478        2.0648963745
 C          5.3528764908       -0.8717008088        2.6484012041
 C          5.5143612586        0.4325460298        3.0838805278
 C          4.4815936720        1.3586509796        2.9766214248
 C          3.2730509074        1.0234619949        2.3938713431
 C          3.1312508299       -0.2641109609        1.8999705378
 C          1.2840066318        0.9253755649       -0.2002138406
 N          2.6134557437        1.2272106692       -0.5273240235
 C          3.2630670449        2.3989136403       -0.2017710469
 C          2.7413550255        3.6109672633        0.2273263411
 C          3.6289204262        4.6248644684        0.5287571877
 C          5.0067203251        4.4417327118        0.4213050939
 C          5.5357404745        3.2320494391        0.0128326253
 C          4.6616494287        2.2024389575       -0.3005850369
 C          4.8488281637        0.8432579344       -0.7130931177
 C          5.9445449516        0.0182561503       -0.9050659219
 S          7.6173661146        0.4224836768       -0.6473379245
 C          8.0996739650       -1.2154522402       -1.0556590477
 C          9.3948065030       -1.7007438185       -1.0572626444
 C          9.5994242089       -3.0268682062       -1.3949610028
 C          8.5265795551       -3.8495878126       -1.7222517946
 C          7.2353995983       -3.3614625627       -1.7212456848
 C          7.0034027670       -2.0289189818       -1.3891926828
 C          5.7561141434       -1.3181249245       -1.3102236213
 C          4.4708967184       -1.7941423517       -1.5810651716
 C          3.3661570978       -0.9976307173       -1.3734344755
 C          3.5599794173        0.2901576667       -0.8786568440
 C          0.2314495210        1.7047745375       -0.7774639752
 C          0.4979811426        2.6278852228       -1.7764889880
 N          0.7198534821        3.3914157969       -2.6189345795
 C         -1.1139507897        1.3974327186       -0.4099238014
 N         -2.1656916029        2.1464221049       -0.9547941722
 C         -3.2882322727        1.6097866162       -1.5498101469
 C         -3.4876153159        0.3289329429       -2.0425101650
 C         -4.7271718057        0.0315071213       -2.5791809916
 C         -5.7340183840        0.9889788269       -2.6445890438
 C         -5.5154453321        2.2868634686       -2.2135825026
 C         -4.2809060723        2.6072774980       -1.6728887487
 C         -3.7032875776        3.8161303596       -1.1490226360
 C         -4.1786609761        5.1063852271       -0.9797226629
 C         -3.3474496191        6.0478127050       -0.3986986961
 C         -2.0618008726        5.7116847407        0.0178386004
 C         -1.5692045808        4.4306470998       -0.1347417803
 C         -2.3933887871        3.4854137990       -0.7284559077
 C         -1.3918707862        0.3601589504        0.4579842644
 N         -2.7183083859        0.1414340594        0.8595370689
 C         -3.5445027055        1.1326495361        1.3499290354
 C         -3.2078983008        2.3721208904        1.8709866030
 C         -4.2382328372        3.1912354367        2.2943621776
 C         -5.5666908968        2.7820117837        2.2180035897
 C         -5.9037549066        1.5265692865        1.7438230302
 C         -4.8850068676        0.6898314461        1.3152258128
 C         -4.8466049577       -0.6445041297        0.7929107326
 C         -5.8059017438       -1.5829336360        0.4548008376
 S         -7.5336513548       -1.4085997277        0.5979613211
 C         -7.7717585332       -3.0075153222       -0.0799454994
 C         -8.9934815081       -3.6196075927       -0.2966325759
 C         -9.0052288412       -4.8895864333       -0.8433362933
 C         -7.8148600921       -5.5348994210       -1.1663553304
 C         -6.5979656703       -4.9229956806       -0.9490092037
 C         -6.5580249470       -3.6425556465       -0.3995898823
 C         -5.4200996144       -2.8196034155       -0.0956420435
 C         -4.0637108964       -3.1027611515       -0.2989669729
 C         -3.0934652920       -2.1784557234        0.0108166258
 C         -3.4867892804       -0.9522137165        0.5476397978
 H          0.5731571707       -2.9186078044        0.0491958366
 H          1.5295609738       -5.1753090327       -0.2025261904
 H          3.7789187679       -5.6905804466        0.6141547528
 H          5.1565043159       -3.9539632888        1.7092379179
 H          6.1473240957       -1.5940455772        2.7593749787
 H          6.4492813633        0.7350698745        3.5298685849
 H          4.6264966484        2.3607329238        3.3513627939
 H          2.4694598710        1.7402141984        2.3308989553
 H          1.6790066491        3.7649611588        0.3120135330
 H          3.2478041344        5.5807211825        0.8558157755
 H          5.6670568713        5.2596813349        0.6656847466
 H          6.6020961255        3.0838197934       -0.0596021300
 H         10.2202072330       -1.0556962805       -0.7995960018
 H         10.6021827243       -3.4255016395       -1.4021920654
 H          8.7074458393       -4.8822225162       -1.9794695867
 H          6.4037473097       -4.0021622650       -1.9730818240
 H          4.3457394541       -2.8046724427       -1.9353815177
 H          2.3739104699       -1.3635343704       -1.5824492839
 H         -2.7007241084       -0.4083090020       -2.0193502018
 H         -4.9164599481       -0.9642994749       -2.9518481156
 H         -6.6940850030        0.7172013264       -3.0561651006
 H         -6.2897219016        3.0339534959       -2.2977518821
 H         -5.1781523800        5.3683751178       -1.2917032303
 H         -3.6979789508        7.0593185439       -0.2614102759
 H         -1.4384638405        6.4679852308        0.4706517221
 H         -0.5736514503        4.1791451459        0.1918647620
 H         -2.1791429032        2.6855469017        1.9508090845
 H         -4.0064119273        4.1681566417        2.6906375934
 H         -6.3437628554        3.4529840987        2.5501968242
 H         -6.9318522899        1.2006077965        1.7085043025
 H         -9.9104952449       -3.1113690022       -0.0427408822
 H         -9.9478431903       -5.3845046132       -1.0202695850
 H         -7.8463072671       -6.5264555676       -1.5913640437
 H         -5.6769372272       -5.4271215443       -1.1996057613
 H         -3.7847934407       -4.0582033117       -0.7147535678
 H         -2.0514149551       -2.3972002522       -0.1537348390
