  65
       -113.62338116
 O         -0.0048245939        4.2629957509       -2.6536973010
 S          0.0003898783        3.9270170613       -1.2496638665
 O          0.0068873035        5.0377697489       -0.3277417076
 C         -1.2958705797        2.7645708115       -0.8601290556
 C         -2.6475107750        2.9510281481       -0.9339789739
 C         -3.5015329012        1.9052157873       -0.5930233846
 C         -2.9430613010        0.6803198698       -0.1831526532
 N         -3.8235163375       -0.3889034001        0.1408146485
 C         -3.8947360292       -1.5066288816       -0.6691602510
 C         -3.1237306176       -1.6429271764       -1.8242214387
 C         -3.2187446098       -2.7793067306       -2.6019701956
 C         -4.0888171825       -3.8052029429       -2.2515235032
 C         -4.8798588276       -3.6801768676       -1.1241578208
 C         -4.7954654906       -2.5422156156       -0.3372876304
 O         -5.6180445961       -2.4646082620        0.7473233850
 C         -5.5411924311       -1.3514379541        1.5312828596
 C         -6.3767266299       -1.2859036120        2.6356320867
 C         -6.3255254828       -0.1915178762        3.4796722926
 C         -5.4231593047        0.8350506079        3.2279695293
 C         -4.5866916653        0.7810059061        2.1305091537
 C         -4.6411529658       -0.3011454736        1.2515643280
 C         -1.5824147069        0.4851074497       -0.1042585238
 C         -0.7106269144        1.5354603229       -0.4487944842
 C          0.7074271668        1.5329882334       -0.4524770788
 C          1.5775036240        0.4812580645       -0.1072415737
 C          2.9382744350        0.6724476958       -0.1920471439
 N          3.8181912054       -0.3949095435        0.1403017542
 C          4.6364619059       -0.2968342603        1.2501193959
 C          4.5800147932        0.7921699755        2.1202594953
 C          5.4172114384        0.8568657843        3.2169532125
 C          6.3215884937       -0.1654622879        3.4763900620
 C          6.3749830560       -1.2662893027        2.6405700166
 C          5.5392517552       -1.3420578913        1.5371506269
 O          5.6201237555       -2.4604785369        0.7604622614
 C          4.8001414462       -2.5459083681       -0.3260915595
 C          4.8928188002       -3.6858377012       -1.1088456298
 C          4.1037993243       -3.8198497151       -2.2368509440
 C          3.2270877827       -2.8017017203       -2.5910688834
 C          3.1245485366       -1.6626926730       -1.8176049943
 C          3.8948830058       -1.5168372135       -0.6634800609
 C          3.4984010431        1.8931339468       -0.6118836787
 C          2.6462591397        2.9405756586       -0.9523100873
 C          1.2944688004        2.7591126855       -0.8697729204
 H         -3.0433370559        3.9008738632       -1.2578780304
 H         -4.5721988771        2.0126841667       -0.6544301145
 H         -2.4557451316       -0.8448459198       -2.1058936741
 H         -2.6128398576       -2.8649218566       -3.4901218727
 H         -4.1571876667       -4.6931594699       -2.8592234329
 H         -5.5764487312       -4.4507341150       -0.8352402862
 H         -7.0549190830       -2.1049316971        2.8132375483
 H         -6.9793671658       -0.1439994721        4.3355920254
 H         -5.3689037710        1.6818183865        3.8936904247
 H         -3.8817531652        1.5747149007        1.9427990956
 H         -1.1936451795       -0.4684150084        0.2215017639
 H          1.1872215440       -0.4691069804        0.2259754244
 H          3.8734887214        1.5832293529        1.9264208449
 H          5.3613599577        1.7091232968        3.8755628714
 H          6.9756391085       -0.1100023176        4.3315381520
 H          7.0552765191       -2.0820046363        2.8239622726
 H          5.5940072257       -4.4509436891       -0.8164355914
 H          4.1793104779       -4.7091402620       -2.8417243798
 H          2.6218468706       -2.8946675896       -3.4790105955
 H          2.4515776907       -0.8700383562       -2.1022165045
 H          4.5691211443        1.9969645661       -0.6784407756
 H          3.0435324264        3.8878902603       -1.2817299695
  65
       -113.62324978
 O         -0.0019491577        3.7345498470       -3.3786464564
 S         -0.0101524059        3.6362252333       -1.9384541697
 O         -0.0227568597        4.8848062775       -1.2138018141
 C         -1.3010173743        2.5449284922       -1.3668389144
 C         -2.6529051911        2.7084502840       -1.4780664958
 C         -3.5031866267        1.7337119087       -0.9608119134
 C         -2.9395999959        0.6122780412       -0.3292234930
 N         -3.8185212582       -0.3705966642        0.2129941693
 C         -4.4787531213       -1.2469918565       -0.6253931677
 C         -4.2776557441       -1.2435025095       -2.0050735319
 C         -4.9504030338       -2.1406437290       -2.8119637163
 C         -5.8304890886       -3.0624446723       -2.2605951468
 C         -6.0341443488       -3.0896332201       -0.8921421149
 C         -5.3664516142       -2.1930530518       -0.0731478963
 O         -5.5970070098       -2.2694896247        1.2701749568
 C         -4.9420524982       -1.3901293872        2.0831524593
 C         -5.1895346350       -1.4669753316        3.4442424432
 C         -4.5623693799       -0.5920703288        4.3138612130
 C         -3.6887430444        0.3679517043        3.8196085438
 C         -3.4331976000        0.4529490079        2.4649858010
 C         -4.0472121071       -0.4261438250        1.5735103013
 C         -1.5793318306        0.4391009133       -0.2121066368
 C         -0.7109734479        1.4139329795       -0.7406610546
 C          0.7077393383        1.4204804245       -0.7380881805
 C          1.5828287542        0.4452653893       -0.2231660132
 C          2.9425797855        0.6284736333       -0.3372926533
 N          3.8274058544       -0.3622422105        0.1736855881
 C          3.9633347392       -0.5473055836        1.5349227272
 C          3.2686253710        0.2256843294        2.4663893292
 C          3.4277551855        0.0047237797        3.8190562741
 C          4.2859865950       -0.9902721805        4.2772735827
 C          5.0003510744       -1.7531847256        3.3723398772
 C          4.8534858236       -1.5371552389        2.0108669547
 O          5.6010435471       -2.3010831965        1.1656010810
 C          5.4664650144       -2.0948028683       -0.1746797182
 C          6.2321435982       -2.8773259817       -1.0261814312
 C          6.1185794043       -2.7267949137       -2.3955682305
 C          5.2230321342       -1.7997247529       -2.9193172341
 C          4.4561026103       -1.0146801778       -2.0822734064
 C          4.5738594171       -1.1322016834       -0.6966903300
 C          3.4976484983        1.7677511226       -0.9477191497
 C          2.6401551824        2.7400031472       -1.4567632894
 C          1.2893263268        2.5620568525       -1.3545167956
 H         -3.0514853129        3.5862000802       -1.9622494952
 H         -4.5746360280        1.8299474646       -1.0273024056
 H         -3.5896728239       -0.5315565238       -2.4320312824
 H         -4.7845012324       -2.1221290384       -3.8774491740
 H         -6.3534406817       -3.7617529861       -2.8931511825
 H         -6.7060964907       -3.7985098935       -0.4357407477
 H         -5.8793689599       -2.2160881317        3.7983222094
 H         -4.7600461417       -0.6557548621        5.3719236497
 H         -3.2057254187        1.0575391408        4.4937555507
 H         -2.7609076438        1.2031459138        2.0802644906
 H         -1.1890121790       -0.4395331300        0.2796764586
 H          1.1980320721       -0.4467741033        0.2485335655
 H          2.6100552814        1.0032426236        2.1137037779
 H          2.8831352127        0.6133118904        4.5234461727
 H          4.4038827201       -1.1622577551        5.3349795117
 H          5.6845056213       -2.5204484369        3.6970405348
 H          6.9058539067       -3.5979217236       -0.5908527917
 H          6.7181406906       -3.3350005675       -3.0536570523
 H          5.1215005694       -1.6915881218       -3.9875305866
 H          3.7566366641       -0.3034945824       -2.4907533494
 H          4.5682913797        1.8778834825       -1.0044322997
 H          3.0322428391        3.6267206828       -1.9297655348
  65
       -113.62324635
 O          0.0943976673        3.9720794106       -3.1120037625
 S          0.0197546754        3.7706836828       -1.6845388457
 O         -0.0460428757        4.9635094948       -0.8742189345
 C         -1.2809577998        2.6257404101       -1.2583965028
 C         -2.6295207510        2.7849848281       -1.4100136839
 C         -3.4882761400        1.7662336340       -1.0034250630
 C         -2.9367002007        0.6019376342       -0.4398990041
 N         -3.8201081409       -0.4224004662        0.0042674305
 C         -4.5119648706       -1.1896811073       -0.9119451680
 C         -4.3538137578       -1.0248157362       -2.2880621607
 C         -5.0621653176       -1.8129740756       -3.1733810056
 C         -5.9362756494       -2.7883677619       -2.7073139961
 C         -6.0920257048       -2.9816610028       -1.3467609320
 C         -5.3873543392       -2.1955018952       -0.4480999098
 O         -5.5655471599       -2.4406587658        0.8815174241
 C         -4.8798061541       -1.6696395796        1.7731231152
 C         -5.0761442052       -1.9189107641        3.1224853761
 C         -4.4230241739       -1.1540905873        4.0717160911
 C         -3.5765202277       -0.1264476566        3.6699337252
 C         -3.3693607230        0.1281831653        2.3292428939
 C         -4.0039303493       -0.6434597206        1.3551835382
 C         -1.5792462985        0.4310840845       -0.2881632774
 C         -0.7029191140        1.4521997929       -0.7017295287
 C          0.7136388900        1.4730329544       -0.6340784710
 C          1.5772541024        0.4718503773       -0.1496934822
 C          2.9357016539        0.6923325770       -0.1528729995
 N          3.8089720150       -0.3272515525        0.3244556569
 C          4.4383983339       -0.1840706289        1.5449375494
 C          4.2128035726        0.9178095019        2.3694643513
 C          4.8577953506        1.0247119239        3.5860180509
 C          5.7348088499        0.0335143056        4.0093276057
 C          5.9593704659       -1.0753126590        3.2133078942
 C          5.3182202192       -1.1933237101        1.9900407352
 O          5.5640597603       -2.3138674794        1.2517256359
 C          4.9337811948       -2.4393457420        0.0482011224
 C          5.1928350856       -3.5786322066       -0.6972001456
 C          4.5947042564       -3.7502628526       -1.9327122987
 C          3.7395090756       -2.7738292759       -2.4297199762
 C          3.4712832742       -1.6361287317       -1.6948464616
 C          4.0529038847       -1.4505698592       -0.4406087339
 C          3.5013693974        1.8902208388       -0.6228151405
 C          2.6558180603        2.8828758452       -1.1131858773
 C          1.3059611917        2.6714377465       -1.1170342186
 H         -3.0196658582        3.6955463987       -1.8371586758
 H         -4.5577255662        1.8630480299       -1.0956967735
 H         -3.6704077157       -0.2738602358       -2.6507101943
 H         -4.9303429442       -1.6683043179       -4.2340788480
 H         -6.4883436467       -3.4009588392       -3.4019115830
 H         -6.7533301686       -3.7382770335       -0.9559099336
 H         -5.7485994415       -2.7132995220        3.4033833284
 H         -4.5792489022       -1.3521055203        5.1199826988
 H         -3.0776483504        0.4817985259        4.4077645006
 H         -2.7190756408        0.9309048723        2.0199423101
 H         -1.1973951616       -0.4807975219        0.1465478372
 H          1.1847198912       -0.4625118035        0.2233489255
 H          3.5277361845        1.6840960684        2.0436380702
 H          4.6734127900        1.8852488431        4.2095988514
 H          6.2373002216        0.1210089642        4.9593067938
 H          6.6270872401       -1.8642800103        3.5199121504
 H          5.8688751272       -4.3136955953       -0.2907861525
 H          4.8001422869       -4.6383352972       -2.5086490667
 H          3.2814093962       -2.8991231942       -3.3980411397
 H          2.8135266212       -0.8754785195       -2.0843242291
 H          4.5713874997        2.0187863090       -0.6114976857
 H          3.0568699060        3.8108635229       -1.4896735825
  65
       -113.62322417
 O          0.0185208084        4.2472947996       -2.6851423673
 S         -0.0043628518        3.9113478067       -1.2813546603
 O         -0.0269284065        5.0221092488       -0.3596809405
 C         -1.3000810131        2.7414099264       -0.9144879785
 C         -2.6513439782        2.9206587115       -1.0097414544
 C         -3.5056073923        1.8794172449       -0.6567295818
 C         -2.9484504680        0.6688802470       -0.2017978867
 N         -3.8302505573       -0.3816492008        0.1711878032
 C         -3.8703077775       -1.5580165474       -0.5528611333
 C         -3.0775231717       -1.7701766538       -1.6821968171
 C         -3.1390833606       -2.9647734376       -2.3697682825
 C         -3.9978674491       -3.9775599514       -1.9538473694
 C         -4.8133091897       -3.7782704222       -0.8555544717
 C         -4.7636806258       -2.5804478266       -0.1593315841
 O         -5.6123027380       -2.4309845802        0.8961887474
 C         -5.5709693929       -1.2595629783        1.5911653998
 C         -6.4381860715       -1.1203643316        2.6645675929
 C         -6.4226286773        0.0350751658        3.4233049650
 C         -5.5204986899        1.0494576946        3.1204857381
 C         -4.6524954025        0.9221807889        2.0546526185
 C         -4.6744091345       -0.2213164775        1.2545115439
 C         -1.5874200229        0.4778564930       -0.1125952396
 C         -0.7152401146        1.5197179030       -0.4800017315
 C          0.7031900393        1.5217801403       -0.4714268983
 C          1.5751098048        0.4679589981       -0.1348211300
 C          2.9349436673        0.6690243545       -0.2019906689
 N          3.8176291492       -0.4058175143        0.1091221426
 C          4.5402912745       -0.3930730414        1.2860518025
 C          4.3903773676        0.6176079453        2.2347485943
 C          5.1284070431        0.5957774594        3.4024831144
 C          6.0239810385       -0.4355544746        3.6514272156
 C          6.1750533638       -1.4562717640        2.7292798748
 C          5.4407542360       -1.4440301754        1.5541351260
 O          5.6198010076       -2.4818133589        0.6854538317
 C          4.9082826893       -2.4711686615       -0.4793436438
 C          5.1113981349       -3.5175622788       -1.3644904392
 C          4.4297295666       -3.5503804474       -2.5683227138
 C          3.5470969642       -2.5281670878       -2.8912865284
 C          3.3349349380       -1.4814100817       -2.0155503745
 C          4.0023090851       -1.4365781780       -0.7919244145
 C          3.4945693371        1.8988167031       -0.5890592093
 C          2.6409379026        2.9445161455       -0.9324920623
 C          1.2894891138        2.7521851794       -0.8746267083
 H         -3.0465151060        3.8626052402       -1.3567519846
 H         -4.5756826640        1.9808336699       -0.7360767759
 H         -2.4193245412       -0.9840281616       -2.0157254554
 H         -2.5165557090       -3.1084081912       -3.2387176128
 H         -4.0384352007       -4.9117607107       -2.4904025237
 H         -5.5032677891       -4.5356885352       -0.5196808281
 H         -7.1118810897       -1.9325296381        2.8857959283
 H         -7.1017242337        0.1407078588        4.2539797924
 H         -5.4919220421        1.9439096326        3.7222606832
 H         -3.9483861468        1.7071566868        1.8309411502
 H         -1.1985500106       -0.4623053138        0.2498881521
 H          1.1875172740       -0.4934111370        0.1682679218
 H          3.6908884559        1.4155646430        2.0436727252
 H          5.0021429997        1.3878596084        4.1235654765
 H          6.5995259772       -0.4487838304        4.5630958356
 H          6.8565458374       -2.2742017273        2.8992444383
 H          5.8105956821       -4.2910222310       -1.0909643422
 H          4.5932198735       -4.3660647535       -3.2541782939
 H          3.0231940919       -2.5438077116       -3.8340660770
 H          2.6559040801       -0.6834752197       -2.2711087258
 H          4.5656903970        2.0112271535       -0.6306322516
 H          3.0364185733        3.8980270364       -1.2457222774
  65
       -113.62311696
 O          0.0012260564        3.7626281359       -3.3274067014
 S         -0.0052281086        3.6570281401       -1.8877219875
 O         -0.0155447437        4.9012664144       -1.1559798539
 C         -1.2969818867        2.5644352822       -1.3209862083
 C         -2.6484458031        2.7270104363       -1.4377333263
 C         -3.4996993574        1.7468207143       -0.9323566880
 C         -2.9371479946        0.6211111943       -0.3083398290
 N         -3.8187990846       -0.3747667623        0.2063582018
 C         -4.4346097023       -1.2598342067       -0.6550756824
 C         -4.1818187103       -1.2542547248       -2.0265133710
 C         -4.8146025270       -2.1576782938       -2.8574754593
 C         -5.7073337960       -3.0879224089       -2.3388277736
 C         -5.9615132941       -3.1180031649       -0.9793297531
 C         -5.3327951798       -2.2160957342       -0.1352975689
 O         -5.6100170354       -2.2953596019        1.1983311177
 C         -4.9976493360       -1.4077491505        2.0342343360
 C         -5.2926361670       -1.4870756446        3.3858812584
 C         -4.7095906929       -0.6029012006        4.2760280067
 C         -3.8312022469        0.3697249561        3.8126103523
 C         -3.5276097774        0.4572258345        2.4685796524
 C         -4.0972824697       -0.4308279262        1.5564438492
 C         -1.5774426943        0.4501884244       -0.1825099157
 C         -0.7082055674        1.4310041289       -0.6985701901
 C          0.7108646284        1.4365634713       -0.6957622316
 C          1.5857965992        0.4584268195       -0.1852557785
 C          2.9447437452        0.6376420058       -0.3099166119
 N          3.8306832841       -0.3616472988        0.1872742993
 C          4.0565074892       -0.4887493703        1.5421845361
 C          3.4436584472        0.3436170280        2.4792936221
 C          3.6953802521        0.1846866804        3.8269510434
 C          4.5651530212       -0.8058200723        4.2714643499
 C          5.1932714729       -1.6327376032        3.3580980464
 C          4.9513476544       -1.4810706410        2.0017705901
 O          5.6092845609       -2.3120242702        1.1440243951
 C          5.3798493599       -2.1673000229       -0.1922589003
 C          6.0487060283       -3.0194983621       -1.0576010695
 C          5.8417359080       -2.9245155411       -2.4215978255
 C          4.9540124615       -1.9797388173       -2.9248561472
 C          4.2810713092       -1.1264960945       -2.0733810309
 C          4.4880206088       -1.1948831105       -0.6954770722
 C          3.5007425873        1.7734796154       -0.9229745879
 C          2.6436481840        2.7508922588       -1.4233265243
 C          1.2931172887        2.5772775612       -1.3118226366
 H         -3.0459344992        3.6065950226       -1.9192877314
 H         -4.5709303488        1.8403095613       -1.0064035339
 H         -3.4860685521       -0.5347902803       -2.4275204034
 H         -4.6095215748       -2.1377168116       -3.9160701065
 H         -6.2007316143       -3.7904647056       -2.9911262785
 H         -6.6440763263       -3.8328172359       -0.5485809756
 H         -5.9838666408       -2.2459340146        3.7158371952
 H         -4.9439205393       -0.6684252819        5.3264095797
 H         -3.3836626124        1.0663335365        4.5036637652
 H         -2.8516818196        1.2155127875        2.1065267509
 H         -1.1886834144       -0.4327378621        0.3024388382
 H          1.2019925331       -0.4318115001        0.2905454900
 H          2.7755065691        1.1162106723        2.1334766619
 H          3.2143088673        0.8384625593        4.5370569581
 H          4.7578666796       -0.9274892159        5.3252479799
 H          5.8803551652       -2.4018418513        3.6726451682
 H          6.7240725467       -3.7480994542       -0.6387057361
 H          6.3660168612       -3.5883189157       -3.0901982565
 H          4.7836586966       -1.9111111184       -3.9874988706
 H          3.5877154021       -0.3988311230       -2.4635569730
 H          4.5713901810        1.8753694575       -0.9925912550
 H          3.0353259017        3.6363573585       -1.8989658613
  65
       -113.62305880
 O         -0.0328110616        4.0934834155       -2.9042609953
 S         -0.0098259838        3.8208276767       -1.4870772466
 O          0.0102897509        4.9715449078       -0.6154896323
 C         -1.3025850000        2.6833007421       -1.0207044108
 C         -2.6539376942        2.8765378361       -1.0748554992
 C         -3.5063529652        1.8612961604       -0.6485641172
 C         -2.9458971529        0.6611192626       -0.1749623124
 N         -3.8304527502       -0.3673219755        0.2563047983
 C         -3.9891171822       -1.5165887981       -0.4917177832
 C         -3.2935694127       -1.7355167976       -1.6820156915
 C         -3.4804028963       -2.8988204033       -2.3996210291
 C         -4.3690583092       -3.8723536548       -1.9514608575
 C         -5.0823806512       -3.6679092721       -0.7853028379
 C         -4.9057782680       -2.5016547254       -0.0564843125
 O         -5.6518913312       -2.3441720611        1.0726938191
 C         -5.4896655017       -1.2000906376        1.7946457006
 C         -6.2509614507       -1.0505242094        2.9441186088
 C         -6.1132638756        0.0822285824        3.7245154575
 C         -5.1989540061        1.0668315449        3.3626284262
 C         -4.4355159538        0.9296975253        2.2210390423
 C         -4.5750945835       -0.1948938703        1.4064992023
 C         -1.5854138974        0.4563891127       -0.1220197465
 C         -0.7149140559        1.4768111893       -0.5507076199
 C          0.7041759763        1.4696738964       -0.5768066443
 C          1.5805462261        0.4344500573       -0.1944758791
 C          2.9379984300        0.6230088247       -0.3148215042
 N          3.8284709830       -0.4273666308        0.0628930485
 C          4.2917891441       -0.5138917196        1.3594542342
 C          3.8862852660        0.3804120450        2.3489462659
 C          4.3711756437        0.2631588424        3.6370535185
 C          5.2665828687       -0.7469069341        3.9636687478
 C          5.6811305363       -1.6439705547        2.9945513959
 C          5.2033989412       -1.5349883377        1.6987135057
 O          5.6472900533       -2.4415506282        0.7791454376
 C          5.1979493361       -2.3236499986       -0.5047827094
 C          5.6682796020       -3.2326825245       -1.4387607173
 C          5.2444806793       -3.1566724546       -2.7540537915
 C          4.3456718672       -2.1699074655       -3.1375727357
 C          3.8685242541       -1.2593160524       -2.2149519145
 C          4.2862049406       -1.3179599323       -0.8861741772
 C          3.4932962452        1.8159538819       -0.8039642863
 C          2.6357693782        2.8469468902       -1.1813282629
 C          1.2861772219        2.6691086667       -1.0673191234
 H         -3.0506817619        3.8084346071       -1.4461790526
 H         -4.5775240841        1.9744384759       -0.6863974745
 H         -2.6124126908       -0.9785230180       -2.0366731507
 H         -2.9341026366       -3.0494936945       -3.3172356562
 H         -4.5101035016       -4.7807618174       -2.5146925377
 H         -5.7884100883       -4.3962361229       -0.4196757670
 H         -6.9415772066       -1.8359025809        3.2062180305
 H         -6.7093366674        0.1946096918        4.6158353006
 H         -5.0798953113        1.9449547436        3.9772040466
 H         -3.7226777261        1.6905401717        1.9466990522
 H         -1.1958615165       -0.4781619725        0.2537378763
 H          1.1984070691       -0.5011145952        0.1856605503
 H          3.1927963635        1.1649461456        2.0908803641
 H          4.0501182712        0.9649861849        4.3904475054
 H          5.6437617510       -0.8353147575        4.9699591949
 H          6.3775574696       -2.4353661795        3.2206324136
 H          6.3654577655       -3.9880247037       -1.1134876942
 H          5.6155009299       -3.8652211712       -3.4772344558
 H          4.0149636537       -2.1088380039       -4.1623490016
 H          3.1711046705       -0.4914448157       -2.5096884761
 H          4.5635173431        1.9178663348       -0.8795795777
 H          3.0259111279        3.7780914909       -1.5612561273
  65
       -113.62303792
 O          0.0121675734        4.1893873076       -2.7766745506
 S         -0.0092828517        3.8833516466       -1.3660539315
 O         -0.0339168895        5.0119799945       -0.4664904719
 C         -1.3027072391        2.7188588542       -0.9735964552
 C         -2.6545659721        2.8977049740       -1.0604727308
 C         -3.5064087872        1.8645340695       -0.6788409785
 C         -2.9460538402        0.6631518192       -0.2045282846
 N         -3.8259466194       -0.3747284888        0.2068635841
 C         -3.8876074310       -1.5652035397       -0.4908448807
 C         -3.1213003500       -1.8048421908       -1.6330122053
 C         -3.2038543666       -3.0130918878       -2.2934586599
 C         -4.0572183699       -4.0136003324       -1.8359967596
 C         -4.8464204916       -3.7877622471       -0.7241552508
 C         -4.7769266889       -2.5752532677       -0.0551457096
 O         -5.6008387750       -2.3982891800        1.0149300406
 C         -5.5403367385       -1.2122182348        1.6822323553
 C         -6.3845623832       -1.0438735184        2.7699712525
 C         -6.3468576725        0.1277331425        3.5021365538
 C         -5.4450084118        1.1303431636        3.1585242702
 C         -4.6003941452        0.9747461378        2.0782235169
 C         -4.6453152992       -0.1859275581        1.3038846260
 C         -1.5844369929        0.4713441489       -0.1261522188
 C         -0.7150662906        1.5054136015       -0.5208466331
 C          0.7037597773        1.5094498015       -0.5168246977
 C          1.5782085090        0.4610918681       -0.1689321087
 C          2.9370005705        0.6650567659       -0.2415211942
 N          3.8222390306       -0.4070312586        0.0807879236
 C          4.4208451482       -0.4675051735        1.3226088161
 C          4.1570591543        0.4749912117        2.3151145638
 C          4.7702848497        0.3794440460        3.5495585269
 C          5.6531074207       -0.6573887096        3.8193091629
 C          5.9221749605       -1.6066782742        2.8485261105
 C          5.3142378032       -1.5201258018        1.6066101282
 O          5.6100071837       -2.4850112300        0.6865361831
 C          5.0212591696       -2.3992460917       -0.5426471857
 C          5.3380239040       -3.3715392578       -1.4772940156
 C          4.7763527779       -3.3271002040       -2.7416290411
 C          3.8975036195       -2.3050031595       -3.0737581959
 C          3.5727576219       -1.3312372515       -2.1492537518
 C          4.1235925248       -1.3623985280       -0.8689275062
 C          3.4943194015        1.8896663336       -0.6429179281
 C          2.6379820600        2.9294834072       -0.9990268841
 C          1.2872356903        2.7342649393       -0.9382302913
 H         -3.0522060898        3.8329241547       -1.4224412077
 H         -4.5771490472        1.9657154754       -0.7488447612
 H         -2.4671739869       -1.0288453574       -1.9970794828
 H         -2.6025361499       -3.1783576283       -3.1733451308
 H         -4.1134007659       -4.9587716498       -2.3515529746
 H         -5.5313771712       -4.5349931294       -0.3567126779
 H         -7.0581932518       -1.8467925572        3.0229134184
 H         -7.0082463201        0.2562853207        4.3438557457
 H         -5.3988943917        2.0372751456        3.7401800269
 H         -3.8966956619        1.7503139672        1.8227284643
 H         -1.1931621955       -0.4620177541        0.2509632062
 H          1.1939142887       -0.4983396727        0.1439702779
 H          3.4688943335        1.2778145800        2.1034516375
 H          4.5569125231        1.1182907554        4.3057813823
 H          6.1301134564       -0.7292358209        4.7836655169
 H          6.6006869990       -2.4242455267        3.0317734376
 H          6.0277819377       -4.1501706171       -1.1938466980
 H          5.0277504204       -4.0858114493       -3.4653745290
 H          3.4642075087       -2.2637769391       -4.0606327317
 H          2.8945230126       -0.5336615025       -2.4074029800
 H          4.5652184318        2.0049959246       -0.6817693100
 H          3.0310122797        3.8803048194       -1.3234150541
  65
       -113.62298558
 O          0.0047941047        3.8366938154       -3.2557250676
 S         -0.0056034877        3.6936752643       -1.8194390451
 O         -0.0180389273        4.9177345624       -1.0541638031
 C         -1.2992697452        2.5864999301       -1.2844646827
 C         -2.6503122398        2.7510250359       -1.4014463595
 C         -3.5028400855        1.7608679023       -0.9170166204
 C         -2.9410968788        0.6244919170       -0.3134041302
 N         -3.8220306677       -0.3777354046        0.1922788941
 C         -4.3848379758       -1.3001794414       -0.6646135292
 C         -4.0911686079       -1.3187182200       -2.0277513760
 C         -4.6689874357       -2.2622859291       -2.8538640311
 C         -5.5466025782       -3.2091689331       -2.3380373399
 C         -5.8442066295       -3.2124031373       -0.9871248594
 C         -5.2721815076       -2.2691371278       -0.1479116084
 O         -5.5937707296       -2.3185833302        1.1769607227
 C         -5.0372526499       -1.3903943430        2.0073353345
 C         -5.3764935116       -1.4391873182        3.3502095508
 C         -4.8476020550       -0.5147357894        4.2329647430
 C         -3.9777184568        0.4671254224        3.7717260639
 C         -3.6300561289        0.5246260715        2.4369875432
 C         -4.1471890526       -0.4023794873        1.5323093090
 C         -1.5818211276        0.4497387465       -0.1901335965
 C         -0.7116045092        1.4399969478       -0.6860386683
 C          0.7076104048        1.4454912477       -0.6792277062
 C          1.5803489523        0.4560547009       -0.1865711763
 C          2.9395080955        0.6379588487       -0.3025518526
 N          3.8236857654       -0.3719072535        0.1791311555
 C          4.0977007170       -0.4778562864        1.5265691283
 C          3.5275956844        0.3777782409        2.4693190993
 C          3.8278663679        0.2409740540        3.8096053743
 C          4.7037478724       -0.7502116888        4.2397295486
 C          5.2865866969       -1.6030592457        3.3199525018
 C          4.9948337931       -1.4746277186        1.9710915873
 O          5.6051975201       -2.3334555165        1.1051954961
 C          5.3303019025       -2.2070315251       -0.2245813643
 C          5.9544304332       -3.0833285950       -1.0989703774
 C          5.7023492113       -3.0045094598       -2.4565391775
 C          4.8160861085       -2.0501719498       -2.9440921184
 C          4.1872912914       -1.1728145204       -2.0834179327
 C          4.4373444731       -1.2277750823       -0.7122439724
 C          3.4979246025        1.7850632958       -0.8900511690
 C          2.6427053125        2.7738656338       -1.3720194998
 C          1.2918934885        2.5990503861       -1.2677340105
 H         -3.0468461668        3.6407818557       -1.8647652266
 H         -4.5738109583        1.8552294643       -0.9913451464
 H         -3.4075051251       -0.5854915351       -2.4249972819
 H         -4.4331120748       -2.2613822830       -3.9062293612
 H         -5.9954034392       -3.9444222076       -2.9864840995
 H         -6.5182072362       -3.9373050299       -0.5597056859
 H         -6.0579507849       -2.2071821766        3.6790413092
 H         -5.1159019560       -0.5566217763        5.2763845849
 H         -3.5707081932        1.1931531851        4.4575642721
 H         -2.9591023153        1.2879332322        2.0761828683
 H         -1.1941559962       -0.4411626559        0.2809749603
 H          1.1946670672       -0.4430969133        0.2703467395
 H          2.8538550410        1.1499125722        2.1334622233
 H          3.3800090904        0.9124707989        4.5248156499
 H          4.9357123209       -0.8535736034        5.2875838377
 H          5.9756583317       -2.3747923125        3.6236771663
 H          6.6315423696       -3.8173205788       -0.6924327175
 H          6.1920204578       -3.6869812139       -3.1325698156
 H          4.6135813629       -1.9916850045       -4.0017590277
 H          3.4963419363       -0.4358119401       -2.4602829983
 H          4.5688139026        1.8871486303       -0.9560475859
 H          3.0372577500        3.6691394053       -1.8264907032
  65
       -113.62274976
 O         -0.0199102349        3.9805422959       -3.1237821674
 S         -0.0028345974        3.7874703633       -1.6934138860
 O          0.0135808918        4.9846945710       -0.8872684021
 C         -1.2986475319        2.6735715909       -1.1751734830
 C         -2.6503639850        2.8611338240       -1.2407712412
 C         -3.5021529601        1.8574376620       -0.7823537639
 C         -2.9389585584        0.6796574781       -0.2676803651
 N         -3.8126450712       -0.3510710489        0.1929863231
 C         -4.2035511614       -1.3591925947       -0.6627397658
 C         -3.7897841589       -1.4005338021       -1.9937310109
 C         -4.1988679667       -2.4281676718       -2.8203111342
 C         -5.0263406263       -3.4352173186       -2.3372301242
 C         -5.4484252231       -3.4110597374       -1.0198222194
 C         -5.0466356992       -2.3837465665       -0.1809385861
 O         -5.4904140237       -2.4051815945        1.1094069062
 C         -5.0998502733       -1.3943621023        1.9388841545
 C         -5.5525407276       -1.4215176901        3.2484765864
 C         -5.1842922400       -0.4205140467        4.1297237116
 C         -4.3587758538        0.6129009326        3.7020719232
 C         -3.8984028176        0.6492629608        2.4007010162
 C         -4.2593060616       -0.3497566693        1.4973978091
 C         -1.5792162616        0.4815498505       -0.1960837045
 C         -0.7109903869        1.4905553463       -0.6545499762
 C          0.7082508394        1.4851535242       -0.6684978406
 C          1.5776923464        0.4720683140       -0.2215365288
 C          2.9371542080        0.6578029050       -0.3245896328
 N          3.8122195785       -0.3725580532        0.1337568205
 C          4.1697630678       -0.4350245025        1.4631573321
 C          3.7253928499        0.5036262464        2.3945262649
 C          4.1014975477        0.4052513170        3.7186354187
 C          4.9270926570       -0.6316199150        4.1434301086
 C          5.3813648990       -1.5701278246        3.2350645658
 C          5.0138519737       -1.4808799883        1.9013433108
 O          5.4908685932       -2.4276483819        1.0439819793
 C          5.1370435015       -2.3417412767       -0.2699304507
 C          5.6264621159       -3.3063043493       -1.1372376357
 C          5.2929963782       -3.2653005565       -2.4786213047
 C          4.4627180582       -2.2569715014       -2.9589377087
 C          3.9661727866       -1.2925301005       -2.1056250073
 C          4.2942791050       -1.3136390041       -0.7500821437
 C          3.4990540954        1.8263008471       -0.8617744104
 C          2.6459103583        2.8361477942       -1.3039601899
 C          1.2944863169        2.6613454675       -1.2062710421
 H         -3.0484437267        3.7785841882       -1.6451953799
 H         -4.5734009246        1.9690769501       -0.8193813016
 H         -3.1483003880       -0.6175001042       -2.3656806931
 H         -3.8715229859       -2.4444536986       -3.8478199581
 H         -5.3429639256       -4.2363956012       -2.9856445336
 H         -6.0911514683       -4.1785919835       -0.6194741551
 H         -6.1911675040       -2.2348290720        3.5537339143
 H         -5.5402205134       -0.4463578074        5.1471978525
 H         -4.0723091707        1.3943365483        4.3879726954
 H         -3.2561214556        1.4483413878        2.0661567492
 H         -1.1903702423       -0.4412391774        0.2079067528
 H          1.1899637034       -0.4438680672        0.1986684257
 H          3.0862741373        1.3061486015        2.0621373188
 H          3.7517026768        1.1403104543        4.4260158081
 H          5.2166955728       -0.7051614538        5.1793766158
 H          6.0242475043       -2.3815756300        3.5363949074
 H          6.2658582582       -4.0773140816       -0.7382547734
 H          5.6772277074       -4.0172505880       -3.1490043752
 H          4.2021028230       -2.2255398724       -4.0049387597
 H          3.3203552693       -0.5114040762       -2.4741468684
 H          4.5701528592        1.9290447566       -0.9214516139
 H          3.0429455233        3.7489142484       -1.7198328846
