  65
  -113.217478120100       0.220175430210072      !
 O          0.0334227009        5.0227267780        0.0102949005
 S          0.0118983241        3.9879505137        1.0166049296
 O         -0.0070493787        4.4325867140        2.3897842698
 C         -1.2849292058        2.8029757864        0.7041154526
 C         -2.6352111257        3.0107417948        0.7134594434
 C         -3.4910014292        1.9477254238        0.4334073006
 C         -2.9342049721        0.6880388809        0.1572723363
 N         -3.8204774615       -0.3927020115       -0.1264807430
 C         -4.4265263611       -0.4786322501       -1.3633947094
 C         -4.1593221322        0.4344575731       -2.3830243602
 C         -4.7826501936        0.3146791364       -3.6094837968
 C         -5.6800929494       -0.7195341801       -3.8467978718
 C         -5.9485416225       -1.6430091307       -2.8523752943
 C         -5.3294154371       -1.5330159429       -1.6171837812
 O         -5.6205961403       -2.4759446977       -0.6749527305
 C         -5.0177232152       -2.3711401161        0.5445311517
 C         -5.3268574622       -3.3259644222        1.5000445675
 C         -4.7538733565       -3.2595547673        2.7575606422
 C         -3.8713855377       -2.2302265010        3.0641913568
 C         -3.5537323962       -1.2744016465        2.1198722144
 C         -4.1131101714       -1.3291988108        0.8434506707
 C         -1.5757714540        0.4679474880        0.1492461514
 C         -0.7018866246        1.5384095824        0.4218760199
 C          0.7170708933        1.5315820467        0.4395383695
 C          1.5873145394        0.4556008963        0.1791258846
 C          2.9473636708        0.6636441801        0.2162756422
 N          3.8287702281       -0.4193842984       -0.0680456175
 C          4.0404194671       -1.4154473518        0.8625435782
 C          3.4171202163       -1.4112717800        2.1107710482
 C          3.6547657655       -2.4264859560        3.0150210234
 C          4.5205541972       -3.4678688632        2.6970078025
 C          5.1588680857       -3.4838317107        1.4702788333
 C          4.9311166498       -2.4683554893        0.5548054599
 O          5.5986650717       -2.5244560411       -0.6327657061
 C          5.3831958342       -1.5275595751       -1.5377569262
 C          6.0617592486       -1.5945731360       -2.7450220990
 C          5.8690827103       -0.6166160610       -3.7035737295
 C          4.9859970068        0.4296896519       -3.4599984663
 C          4.3034944752        0.5067172071       -2.2624426796
 C          4.4959839369       -0.4605857772       -1.2758339123
 C          3.5089322718        1.9164393022        0.5166869568
 C          2.6564188879        2.9850225072        0.7843606689
 C          1.3049197947        2.7898483070        0.7411621505
 H         -3.0282689354        3.9907384654        0.9340791093
 H         -4.5614636212        2.0736799750        0.4311526435
 H         -3.4599296269        1.2342178068       -2.1993461039
 H         -4.5664561293        1.0311232092       -4.3860449998
 H         -6.1660732319       -0.8086171244       -4.8051234007
 H         -6.6350641864       -2.4591232504       -3.0106171065
 H         -6.0209533765       -4.1080379425        1.2371217948
 H         -4.9991941479       -4.0044280323        3.4974841920
 H         -3.4316642578       -2.1710165029        4.0471712296
 H         -2.8745999659       -0.4713468376        2.3582880833
 H         -1.1914757910       -0.5167455035       -0.0711272928
 H          1.1991915803       -0.5235212198       -0.0594052964
 H          2.7520660444       -0.5996601459        2.3595817095
 H          3.1657592838       -2.4059861647        3.9760389247
 H          4.7022593850       -4.2597287555        3.4057694049
 H          5.8431794546       -4.2721947027        1.2005623529
 H          6.7332257252       -2.4218541849       -2.9099209249
 H          6.4008671063       -0.6724486150       -4.6398536324
 H          4.8267834053        1.1876251606       -4.2104146959
 H          3.6137381010        1.3143461316       -2.0768418847
 H          4.5801765666        2.0319686929        0.5412412014
 H          3.0524169304        3.9604172626        1.0199095547
  65
  -113.217257540300       0.174340142358444      !
 O          0.0390528425        5.0303632455        0.1179348383
 S          0.0131372462        3.9689619893        1.0958078922
 O         -0.0079058660        4.3749386856        2.4810378770
 C         -1.2859578597        2.7952547006        0.7488636872
 C         -2.6356970715        3.0053893536        0.7596587364
 C         -3.4931628058        1.9496140495        0.4563798702
 C         -2.9376931052        0.6954754001        0.1566408032
 N         -3.8237901490       -0.3832448100       -0.1390177884
 C         -4.3770425782       -0.4989551281       -1.3969695220
 C         -4.0686218517        0.3911408881       -2.4252379261
 C         -4.6372127653        0.2392960252       -3.6743593169
 C         -5.5201156858       -0.8048401969       -3.9256259472
 C         -5.8323327646       -1.7030502795       -2.9209955153
 C         -5.2696770269       -1.5600975004       -1.6623353511
 O         -5.6055837572       -2.4753583084       -0.7080735578
 C         -5.0583344822       -2.3376867938        0.5338338260
 C         -5.4120869601       -3.2643008058        1.5018327592
 C         -4.8930290288       -3.1640426773        2.7801600658
 C         -4.0184575678       -2.1300008627        3.0953938172
 C         -3.6563745091       -1.2023474578        2.1393303484
 C         -4.1634364881       -1.2900250679        0.8430243426
 C         -1.5797865595        0.4734615702        0.1438136725
 C         -0.7045088310        1.5368155270        0.4387329309
 C          0.7145475886        1.5264538024        0.4592039218
 C          1.5821577047        0.4536656860        0.1768104859
 C          2.9424456905        0.6571378706        0.2223064036
 N          3.8216184483       -0.4237003095       -0.0817697494
 C          4.0810513029       -1.4003454463        0.8567169860
 C          3.5005454436       -1.3836804881        2.1250398656
 C          3.7863180117       -2.3788088536        3.0378918489
 C          4.6577486272       -3.4113639959        2.7076450438
 C          5.2507379897       -3.4413047736        1.4584424852
 C          4.9735777591       -2.4467923989        0.5336898027
 O          5.5935084028       -2.5172056873       -0.6790068091
 C          5.3329983000       -1.5369953912       -1.5906972097
 C          5.9667894899       -1.6149120472       -2.8212364598
 C          5.7294058926       -0.6519565681       -3.7851432077
 C          4.8482259133        0.3913107920       -3.5223784845
 C          4.2099169750        0.4791678513       -2.3014190784
 C          4.4451190617       -0.4749906753       -1.3115065717
 C          3.5068926425        1.9007371978        0.5504731392
 C          2.6566851607        2.9658249158        0.8405747776
 C          1.3048688186        2.7753637247        0.7911224801
 H         -3.0274222091        3.9808698092        1.0016505203
 H         -4.5632904580        2.0770169271        0.4547187342
 H         -3.3808876792        1.1981931184       -2.2289986729
 H         -4.3899536220        0.9377691627       -4.4580103762
 H         -5.9616748985       -0.9200364092       -4.9024872909
 H         -6.5107336018       -2.5240050478       -3.0890797031
 H         -6.0968649917       -4.0518735283        1.2313910880
 H         -5.1726032118       -3.8869621123        3.5296198753
 H         -3.6190890645       -2.0462566424        4.0937121125
 H         -2.9817518063       -0.3969528136        2.3826830370
 H         -1.1970137656       -0.5079893013       -0.0931926781
 H          1.1917847193       -0.5191010802       -0.0826733758
 H          2.8302800973       -0.5788544191        2.3817830944
 H          3.3305652767       -2.3493409343        4.0148416142
 H          4.8783774738       -4.1866647372        3.4236907649
 H          5.9366813373       -4.2245818878        1.1780873494
 H          6.6396504392       -2.4382422643       -2.9997950557
 H          6.2265486680       -0.7159576289       -4.7397719175
 H          4.6571730471        1.1393998677       -4.2753391229
 H          3.5228972571        1.2851225168       -2.0988059576
 H          4.5784072003        2.0133718196        0.5778744153
 H          3.0559026918        3.9340061216        1.0993823164
  65
  -113.216981344700       0.130156747351888      !
 O          0.0341883808        5.0356490167       -0.0564656647
 S          0.0113252920        4.0079618345        0.9570555143
 O         -0.0080085993        4.4632320798        2.3269422750
 C         -1.2858157948        2.8210038751        0.6528175358
 C         -2.6364239890        3.0267662768        0.6680149067
 C         -3.4923947175        1.9600031474        0.4034846421
 C         -2.9358033343        0.6975837765        0.1376818832
 N         -3.8206697237       -0.3916081574       -0.1137493583
 C         -4.4727982068       -0.4879730482       -1.3271372692
 C         -4.2577120843        0.4272216853       -2.3567618598
 C         -4.9226852303        0.2945396502       -3.5603935500
 C         -5.8087787772       -0.7549591218       -3.7645167875
 C         -6.0263205473       -1.6804496852       -2.7590212988
 C         -5.3665247750       -1.5561706999       -1.5467319815
 O         -5.6107348627       -2.5017113620       -0.5928824560
 C         -4.9636241899       -2.3862546169        0.6033991898
 C         -5.2249406037       -3.3437521626        1.5701622596
 C         -4.6061946196       -3.2689590382        2.8057152620
 C         -3.7271208874       -2.2286230323        3.0778941507
 C         -3.4578031352       -1.2693613374        2.1214341462
 C         -4.0631793905       -1.3329050446        0.8668312699
 C         -1.5768797811        0.4806280973        0.1205597635
 C         -0.7027183504        1.5548190502        0.3768197885
 C          0.7158984027        1.5479539016        0.3933979728
 C          1.5852329402        0.4701382996        0.1393474289
 C          2.9461629172        0.6733296975        0.1851281164
 N          3.8252658988       -0.4135530651       -0.0820752269
 C          3.9472853419       -1.4549282342        0.8158895138
 C          3.2435466749       -1.4880692024        2.0206376648
 C          3.3888349220       -2.5508201098        2.8885694365
 C          4.2418777645       -3.6057672582        2.5788185077
 C          4.9650063608       -3.5827947588        1.4007631314
 C          4.8320689290       -2.5179906990        0.5230578203
 O          5.5877831984       -2.5355428998       -0.6107370178
 C          5.4669119936       -1.4921679072       -1.4789388104
 C          6.2408001932       -1.5196462224       -2.6295922251
 C          6.1412097718       -0.4988970994       -3.5563767796
 C          5.2514840112        0.5488484083       -3.3409831008
 C          4.4764928724        0.5878023230       -2.1994974125
 C          4.5801278117       -0.4189804771       -1.2386818089
 C          3.5079633568        1.9271592135        0.4867351323
 C          2.6561629011        2.9987364803        0.7433532672
 C          1.3042777885        2.8072935703        0.6922251818
 H         -3.0296342131        4.0078311450        0.8839811984
 H         -4.5630663469        2.0837380407        0.4096511149
 H         -3.5650784631        1.2384725021       -2.1998820179
 H         -4.7459730121        1.0130916034       -4.3449834714
 H         -6.3256341212       -0.8560100786       -4.7054136375
 H         -6.7032214054       -2.5090209150       -2.8916974931
 H         -5.9187046680       -4.1345495154        1.3340588209
 H         -4.8146273438       -4.0162023521        3.5545885297
 H         -3.2506242478       -2.1621232659        4.0432126368
 H         -2.7812711245       -0.4573281240        2.3351773760
 H         -1.1920071472       -0.5060754061       -0.0903598361
 H          1.1952263075       -0.5078025960       -0.1011309830
 H          2.5889759094       -0.6673222241        2.2668287947
 H          2.8373998158       -2.5577374113        3.8154065349
 H          4.3489513305       -4.4361358837        3.2579676547
 H          5.6454493078       -4.3774727369        1.1406172667
 H          6.9097003180       -2.3525821518       -2.7760339813
 H          6.7471138055       -0.5227565386       -4.4478810027
 H          5.1608489667        1.3382359558       -4.0701844068
 H          3.7815613622        1.3960856573       -2.0393672392
 H          4.5791812258        2.0396291794        0.5250036760
 H          3.0534706980        3.9735022375        0.9793830866
  65
  -113.216812569800       0.108868719101413      !
 O          0.0931653793        5.0366078786        0.3078871079
 S          0.0059326462        3.9389352897        1.2413180063
 O         -0.0776225178        4.2939012898        2.6380279860
 C         -1.2896248816        2.8002295758        0.7839064560
 C         -2.6378577344        3.0206966716        0.7587863024
 C         -3.4923243259        1.9891471261        0.3761356795
 C         -2.9369590611        0.7438181722        0.0324671907
 N         -3.8164054362       -0.3168286120       -0.3260916285
 C         -4.4928412528       -0.2827241817       -1.5294628580
 C         -4.3223226210        0.7535042631       -2.4476373236
 C         -5.0153903914        0.7515002737       -3.6419563794
 C         -5.8861556452       -0.2870588281       -3.9515416466
 C         -6.0538874471       -1.3342338786       -3.0638393017
 C         -5.3646163492       -1.3425753872       -1.8609115060
 O         -5.5540595659       -2.4080211297       -1.0310479844
 C         -4.8835240036       -2.4230000179        0.1563145186
 C         -5.0912743929       -3.5046138141        0.9979882300
 C         -4.4538812688       -3.5624435307        2.2239329097
 C         -3.6117852155       -2.5274228355        2.6159206532
 C         -3.3933442317       -1.4475574506        1.7844291571
 C         -4.0118855621       -1.3783707345        0.5356206036
 C         -1.5797429191        0.5145812235        0.0500889980
 C         -0.7076556189        1.5525196772        0.4293134377
 C          0.7079417058        1.5224626218        0.5119454696
 C          1.5747851203        0.4515178175        0.2212801532
 C          2.9313619794        0.6178684318        0.3826150786
 N          3.8080794953       -0.4621689795        0.0745872314
 C          4.4241237527       -1.1650767944        1.0907881930
 C          4.1813813437       -0.8874990748        2.4357432102
 C          4.8133234822       -1.6149542223        3.4251387668
 C          5.6940918968       -2.6379159386        3.0955743531
 C          5.9355734473       -2.9396034071        1.7673259314
 C          5.3076296435       -2.2160083494        0.7655876617
 O          5.5699072059       -2.5647571366       -0.5269870435
 C          4.9526979878       -1.8598530324       -1.5187683218
 C          5.2284116255       -2.2179318077       -2.8289084661
 C          4.6440410990       -1.5263565762       -3.8748255922
 C          3.7859437997       -0.4655602478       -3.6099140353
 C          3.5011768415       -0.1016787678       -2.3088203649
 C          4.0687387465       -0.7952465219       -1.2398656596
 C          3.4919423306        1.8256439571        0.8329370191
 C          2.6432902086        2.8941694708        1.1136989956
 C          1.2952999568        2.7392438610        0.9532160329
 H         -3.0311050757        3.9856053729        1.0382431853
 H         -4.5615514948        2.1233796752        0.3575869589
 H         -3.6414547020        1.5556215347       -2.2120140273
 H         -4.8741789115        1.5633737782       -4.3378781569
 H         -6.4262795964       -0.2843105374       -4.8846929063
 H         -6.7128908249       -2.1593091416       -3.2818330473
 H         -5.7600247709       -4.2850001643        0.6725296619
 H         -4.6189360422       -4.4059716271        2.8748524382
 H         -3.1252487223       -2.5620755907        3.5778521731
 H         -2.7465466720       -0.6420809976        2.0938807342
 H         -1.1948535752       -0.4563302894       -0.2246893401
 H          1.1861504494       -0.4948843398       -0.1244979245
 H          3.4933973811       -0.0976013708        2.6915065348
 H          4.6157526654       -1.3846680423        4.4601787565
 H          6.1863605835       -3.2029628666        3.8708206759
 H          6.6065840095       -3.7337099876        1.4819123609
 H          5.9063120697       -3.0379263880       -3.0037813719
 H          4.8624142222       -1.8088656774       -4.8922155857
 H          3.3385528891        0.0833484270       -4.4233883114
 H          2.8411816893        0.7262150635       -2.1040676008
 H          4.5607153302        1.9137566083        0.9404374378
 H          3.0405279126        3.8380830877        1.4527801001
  65
  -113.216633500100       9.007585166246698E-002 !
 O          0.0107189344        5.0501886174        0.3140198231
 S          0.0125261517        3.9547416846        1.2539743541
 O          0.0193398960        4.3127243287        2.6522904173
 C         -1.2879464714        2.7867660061        0.8891750631
 C         -2.6390201694        2.9793836881        0.9533491854
 C         -3.4949341082        1.9305634880        0.6209570309
 C         -2.9364207237        0.7049863906        0.2269184786
 N         -3.8142345425       -0.3653740931       -0.1219576470
 C         -4.1951269525       -0.5466859559       -1.4347526584
 C         -3.7670088361        0.3047656863       -2.4526892487
 C         -4.1663771180        0.0896200536       -3.7568491179
 C         -4.9982393948       -0.9782653841       -4.0728445296
 C         -5.4345151293       -1.8334633474       -3.0765501402
 C         -5.0425730526       -1.6266904596       -1.7634776730
 O         -5.5002148291       -2.4978006781       -0.8178978812
 C         -5.1193839202       -2.2970171510        0.4770856664
 C         -5.5861403620       -3.1851394314        1.4331587023
 C         -5.2281738363       -3.0259645859        2.7600856308
 C         -4.3988851744       -1.9752335674        3.1349916423
 C         -3.9245422224       -1.0857531354        2.1912463949
 C         -4.2749277540       -1.2288282503        0.8492301701
 C         -1.5773782555        0.5004509095        0.1602803945
 C         -0.7050319002        1.5531603964        0.4963074095
 C          0.7142809296        1.5490383396        0.4944416861
 C          1.5796276407        0.4894691727        0.1619768886
 C          2.9399790690        0.6877430343        0.2201602277
 N          3.8108397978       -0.3923362829       -0.1152422733
 C          4.1540834800       -1.3253470220        0.8390741624
 C          3.6989861362       -1.2407087126        2.1550152599
 C          4.0608743562       -2.1971415728        3.0816600256
 C          4.8826342548       -3.2594461328        2.7164485037
 C          5.3473850347       -3.3593394346        1.4178660588
 C          4.9941986344       -2.4033881459        0.4780470267
 O          5.4811491066       -2.5435166196       -0.7877440096
 C          5.1414388148       -1.6033227394       -1.7148742515
 C          5.6409113146       -1.7502093678       -2.9998200848
 C          5.3218894885       -0.8254185055       -3.9771520613
 C          4.4960667653        0.2525200025       -3.6724246050
 C          3.9896189317        0.4086685551       -2.3980717456
 C          4.3031138868       -0.5106437769       -1.3969815666
 C          3.5067439904        1.9139348238        0.6008407089
 C          2.6576451034        2.9678024416        0.9348578949
 C          1.3053804935        2.7812071290        0.8800073987
 H         -3.0334180910        3.9361330032        1.2580171407
 H         -4.5658056697        2.0456299009        0.6583788158
 H         -3.1221513583        1.1326739579       -2.2042612037
 H         -3.8279656375        0.7585503728       -4.5322227389
 H         -5.3072453355       -1.1433659752       -5.0925676900
 H         -6.0809328742       -2.6686699827       -3.2934725300
 H         -6.2273991925       -3.9913316221        1.1148147632
 H         -5.5950266660       -3.7194982759        3.4997047796
 H         -4.1204230116       -1.8496057911        4.1693228935
 H         -3.2793025460       -0.2707402620        2.4782852829
 H         -1.1922047717       -0.4599362881       -0.1483406099
 H          1.1880918182       -0.4714592039       -0.1366223639
 H          3.0628746682       -0.4161037707        2.4349905462
 H          3.7029159917       -2.1162358261        4.0957485186
 H          5.1611122499       -4.0051447278        3.4436671670
 H          5.9876016936       -4.1699824212        1.1087930290
 H          6.2765584955       -2.5955632973       -3.2091049475
 H          5.7138964750       -0.9437681373       -4.9745486287
 H          4.2467152333        0.9732634932       -4.4349067891
 H          3.3472147645        1.2413648222       -2.1593662654
 H          4.5783450007        2.0232861723        0.6337618051
 H          3.0584426349        3.9234211847        1.2346641272
  65
  -113.216502306800       7.840000869971708E-002 !
 O          0.0232504985        4.9876593082        0.5613635250
 S          0.0254053807        3.8399971698        1.4366613119
 O          0.0376984541        4.1172540928        2.8534171967
 C         -1.2780372090        2.6967270185        1.0163426239
 C         -2.6277607610        2.8932897405        1.0940372077
 C         -3.4898831135        1.8625696039        0.7287799750
 C         -2.9406429988        0.6452884081        0.2867440492
 N         -3.8350217626       -0.3981996604       -0.0838508558
 C         -3.9875695650       -0.7550076705       -1.4085937086
 C         -3.2762962707       -0.1337831766       -2.4365507641
 C         -3.4574881758       -0.5209795180       -3.7481863602
 C         -4.3559945271       -1.5347253384       -4.0696342135
 C         -5.0847581380       -2.1504541247       -3.0694679987
 C         -4.9139417279       -1.7684028109       -1.7475856060
 O         -5.6751537715       -2.3941198830       -0.8065419748
 C         -5.5187003950       -2.0238548739        0.4953336747
 C         -6.2954071787       -2.6688104788        1.4461167440
 C         -6.1643387492       -2.3456291519        2.7838325762
 C         -5.2413438548       -1.3814105797        3.1771908412
 C         -4.4625582698       -0.7324615083        2.2405864233
 C         -4.5949997447       -1.0267895168        0.8828333415
 C         -1.5818164498        0.4408494311        0.2005631196
 C         -0.7015583426        1.4768097770        0.5676275657
 C          0.7177206339        1.4716621893        0.5546156910
 C          1.5847412099        0.4343582776        0.1569148721
 C          2.9444458166        0.6386748024        0.2035207101
 N          3.8255743675       -0.4070238786       -0.2076057837
 C          4.2704054622       -1.3408726449        0.7052320971
 C          3.8545062722       -1.3282079931        2.0357111723
 C          4.3209091391       -2.2796012936        2.9219427671
 C          5.2078381621       -3.2612602856        2.4996075792
 C          5.6324851455       -3.2896653208        1.1825542609
 C          5.1733170004       -2.3393768890        0.2851040122
 O          5.6265762787       -2.4082284677       -1.0010979255
 C          5.1956634229       -1.4595674424       -1.8835011752
 C          5.6755510255       -1.5209825769       -3.1818854333
 C          5.2704569000       -0.5829760705       -4.1153850166
 C          4.3808333411        0.4192548621       -3.7510331452
 C          3.8942936481        0.4894807765       -2.4601329964
 C          4.2931475298       -0.4444840785       -1.5050561584
 C          3.5110322019        1.8473835867        0.6379596323
 C          2.6627676468        2.8779953213        1.0366941037
 C          1.3110513427        2.6857990279        0.9925678771
 H         -3.0157501275        3.8403913184        1.4348912540
 H         -4.5599854457        1.9851360285        0.7674915059
 H         -2.5873923637        0.6587149271       -2.1912873586
 H         -2.8989974881       -0.0286945481       -4.5285110865
 H         -4.4925947982       -1.8352331923       -5.0959696642
 H         -5.7985769101       -2.9285805504       -3.2876485404
 H         -6.9925836305       -3.4207030774        1.1128481872
 H         -6.7723743525       -2.8483493185        3.5186444492
 H         -5.1275595792       -1.1374229493        4.2214617318
 H         -3.7430835328        0.0090189170        2.5485558754
 H         -1.2010899986       -0.5110980557       -0.1388097300
 H          1.1937919380       -0.5119027210       -0.1859612698
 H          3.1676634794       -0.5628451428        2.3604961903
 H          3.9920172405       -2.2542168490        3.9487960690
 H          5.5705865485       -4.0021040228        3.1940602282
 H          6.3226864814       -4.0388737853        0.8293702754
 H          6.3652543658       -2.3093913633       -3.4370767865
 H          5.6488589731       -0.6341053773       -5.1237922996
 H          4.0647055297        1.1514626448       -4.4771176903
 H          3.2039697712        1.2668937213       -2.1738254505
 H          4.5825830948        1.9607728443        0.6579240720
 H          3.0616990346        3.8207242152        1.3768440926
  65
  -113.216408388400       7.098297587801250E-002 !
 O          0.0684820113        4.9574386782        0.8178983025
 S          0.0245588004        3.7736655616        1.6429776503
 O         -0.0082318816        3.9910860885        3.0696646226
 C         -1.2794367577        2.6707931344        1.1277113568
 C         -2.6287063612        2.8836175958        1.1636590705
 C         -3.4907486280        1.8809968505        0.7275376124
 C         -2.9434391280        0.6678613361        0.2676017000
 N         -3.8333266816       -0.3546560935       -0.1600197344
 C         -3.8661637362       -0.7517210870       -1.4832554263
 C         -3.0578355747       -0.1687191849       -2.4608201527
 C         -3.1127456857       -0.6033998278       -3.7691180053
 C         -3.9801338602       -1.6265259731       -4.1393712765
 C         -4.8107061349       -2.1982474223       -3.1937534262
 C         -4.7678417851       -1.7667696258       -1.8769550996
 O         -5.6311116240       -2.3468997956       -0.9967073544
 C         -5.5965948815       -1.9342203678        0.3015352448
 C         -6.4787414749       -2.5336895787        1.1881509180
 C         -6.4709556240       -2.1750322978        2.5231674722
 C         -5.5618442540       -1.2263911366        2.9793542511
 C         -4.6789875820       -0.6230560558        2.1063249083
 C         -4.6925029947       -0.9451983389        0.7482624531
 C         -1.5843480214        0.4501496101        0.2193935291
 C         -0.7041830146        1.4625944045        0.6453343926
 C          0.7139786049        1.4420540218        0.6657695525
 C          1.5781370820        0.4210049930        0.2244357471
 C          2.9393314657        0.6001499656        0.3200604648
 N          3.8145635468       -0.4197819456       -0.1541943032
 C          4.5203005698       -1.2008914295        0.7398804262
 C          4.3595177587       -1.0747257188        2.1190856105
 C          5.0806594177       -1.8757296121        2.9834441889
 C          5.9697876747       -2.8219844110        2.4917895308
 C          6.1313208951       -2.9733079348        1.1257549191
 C          5.4139898411       -2.1745849406        0.2495198001
 O          5.6026815928       -2.3745183192       -1.0876716373
 C          4.9079761917       -1.5841290041       -1.9570357280
 C          5.1209470385       -1.7798283404       -3.3120359214
 C          4.4565310134       -0.9963063979       -4.2391852760
 C          3.5813799730       -0.0078133934       -3.8087688203
 C          3.3594994794        0.1945169714       -2.4606374334
 C          4.0093710515       -0.5930216884       -1.5108435395
 C          3.5077640294        1.7696648238        0.8534567368
 C          2.6619679790        2.7889732716        1.2844548850
 C          1.3093147783        2.6224406981        1.1877613023
 H         -3.0163192262        3.8225020464        1.5271037659
 H         -4.5592984102        2.0218576063        0.7261354668
 H         -2.3928041409        0.6326518506       -2.1814746731
 H         -2.4782067846       -0.1403148031       -4.5081424982
 H         -4.0155182757       -1.9673014205       -5.1615690422
 H         -5.5074503663       -2.9793476884       -3.4525313647
 H         -7.1577268673       -3.2796731701        0.8074847161
 H         -7.1616097883       -2.6404125914        3.2078336077
 H         -5.5394923306       -0.9585214731        4.0237393399
 H         -3.9696288460        0.1039152812        2.4673327811
 H         -1.2032527416       -0.4976133498       -0.1313629083
 H          1.1836473544       -0.4941556740       -0.1917160141
 H          3.6649946786       -0.3435394240        2.5005746800
 H          4.9461998590       -1.7618472252        4.0475155875
 H          6.5321582220       -3.4444839909        3.1691375253
 H          6.8080984588       -3.7051748515        0.7150575674
 H          5.8140620946       -2.5475144843       -3.6156533401
 H          4.6276439536       -1.1516650067       -5.2923006110
 H          3.0710144595        0.6132017067       -4.5280875356
 H          2.6863571842        0.9683110359       -2.1271479779
 H          4.5796702766        1.8689021017        0.9066893587
 H          3.0644692961        3.7049123418        1.6878770671
  65
  -113.216370569700       6.819836007090893E-002 !
 O          0.0199083784        4.9496251801        0.8462148943
 S          0.0105996361        3.7661749207        1.6730024044
 O          0.0065637605        3.9846205068        3.0998939399
 C         -1.2888173558        2.6466447799        1.1815987288
 C         -2.6397448285        2.8437893193        1.2388731599
 C         -3.4965242322        1.8408849651        0.7922862034
 C         -2.9414796113        0.6492351794        0.2901399990
 N         -3.8244941600       -0.3597260623       -0.1849145285
 C         -3.8863497368       -0.6572951385       -1.5332721839
 C         -3.1031306020        0.0027135051       -2.4809795726
 C         -3.1891043002       -0.3300474935       -3.8178258314
 C         -4.0620480429       -1.3242575533       -4.2442267969
 C         -4.8650024197       -1.9741784401       -3.3248798029
 C         -4.7897459537       -1.6462224633       -1.9802519419
 O         -5.6237506295       -2.3030124828       -1.1246215240
 C         -5.5559857249       -1.9916133123        0.2013065743
 C         -6.4031434365       -2.6704526862        1.0635711966
 C         -6.3616462805       -2.4128246608        2.4217358965
 C         -5.4574503038       -1.4838787759        2.9226860254
 C         -4.6094402969       -0.8010275879        2.0732088329
 C         -4.6538392879       -1.0263119215        0.6970412024
 C         -1.5815927654        0.4421369971        0.2308995069
 C         -0.7070144079        1.4506995323        0.6779727117
 C          0.7110013648        1.4421821965        0.6854408788
 C          1.5781839967        0.4209304101        0.2525482648
 C          2.9396283335        0.6114548268        0.3274643803
 N          3.8167980358       -0.4129897343       -0.1253572665
 C          4.6232712855       -1.0817557537        0.7764375034
 C          4.5568555552       -0.8447885454        2.1496438928
 C          5.3824167904       -1.5299227906        3.0196212447
 C          6.2847789467       -2.4724446408        2.5423842755
 C          6.3477900026       -2.7410190941        1.1869641878
 C          5.5237730944       -2.0597087064        0.3046182658
 O          5.6136509962       -2.3808751096       -1.0180396424
 C          4.8052119623       -1.7180878792       -1.8940578301
 C          4.9069744940       -2.0513863722       -3.2354333974
 C          4.1299691349       -1.3976051767       -4.1744433881
 C          3.2562714531       -0.3954585787       -3.7706199466
 C          3.1447460267       -0.0566168056       -2.4368843556
 C          3.9027836975       -0.7187634726       -1.4706369482
 C          3.5032276947        1.7993841996        0.8287218209
 C          2.6539312240        2.8141210478        1.2625129416
 C          1.3014834466        2.6323182326        1.1924339730
 H         -3.0328519116        3.7716415512        1.6240393356
 H         -4.5665649175        1.9688970989        0.8087694167
 H         -2.4328158334        0.7822087803       -2.1561060946
 H         -2.5738232438        0.1917113718       -4.5336895253
 H         -4.1233551227       -1.5843288028       -5.2887577484
 H         -5.5640168637       -2.7377187847       -3.6263002007
 H         -7.0825538379       -3.3964523234        0.6468917744
 H         -7.0244939028       -2.9413629777        3.0878033190
 H         -5.4108370976       -1.2930383196        3.9831344087
 H         -3.9031600500       -0.0874237962        2.4657456648
 H         -1.1955588758       -0.4896549522       -0.1553752501
 H          1.1851288009       -0.5084443506       -0.1325719186
 H          3.8518162488       -0.1200256319        2.5240310543
 H          5.3189998298       -1.3295482681        4.0774762811
 H          6.9297530152       -3.0029379992        3.2240891372
 H          7.0267265470       -3.4771145618        0.7881759581
 H          5.6056197635       -2.8221527230       -3.5189294842
 H          4.2125069422       -1.6614752838       -5.2165429809
 H          2.6604775366        0.1284482533       -4.5013394134
 H          2.4742140771        0.7293901612       -2.1290300232
 H          4.5745108443        1.9143330202        0.8568529736
 H          3.0539395647        3.7386488330        1.6485054018
  65
  -113.216230473900       5.880176466707712E-002 !
 O          0.0741982959        4.9744571496        0.7143572655
 S          0.0293534712        3.8079844245        1.5636503838
 O         -0.0043015110        4.0525742112        2.9858551440
 C         -1.2752173843        2.6952983891        1.0706618954
 C         -2.6247441438        2.9051505824        1.1130297851
 C         -3.4870376512        1.8916497931        0.7031674287
 C         -2.9395166305        0.6715477582        0.2628706358
 N         -3.8303422353       -0.3648794292       -0.1281517848
 C         -3.8863991978       -0.7887245671       -1.4415606778
 C         -3.1034197902       -0.2184202110       -2.4469937247
 C         -3.1810284107       -0.6800340581       -3.7445921115
 C         -4.0458818986       -1.7195681930       -4.0761277608
 C         -4.8513411033       -2.2796901309       -3.1027145624
 C         -4.7869057588       -1.8204130856       -1.7960034765
 O         -5.6266356553       -2.3887660882       -0.8865871305
 C         -5.5712819834       -1.9479680945        0.4011823606
 C         -6.4316370518       -2.5342262793        1.3178738508
 C         -6.4001552936       -2.1470585090        2.6442447861
 C         -5.4885919307       -1.1823486793        3.0625933547
 C         -4.6279076961       -0.5915262761        2.1599389649
 C         -4.6658974907       -0.9423805957        0.8092946452
 C         -1.5801580026        0.4575389443        0.2056187606
 C         -0.7001308775        1.4801588960        0.6064796154
 C          0.7184631695        1.4610348393        0.6245095418
 C          1.5826928361        0.4349580589        0.1943726820
 C          2.9433479897        0.6168778171        0.2876972549
 N          3.8186598807       -0.4100461537       -0.1772320758
 C          4.3975202504       -1.2894151938        0.7148084340
 C          4.1224640250       -1.2423278747        2.0804866549
 C          4.7159010500       -2.1431754208        2.9438134230
 C          5.5897753747       -3.1087857552        2.4630810574
 C          5.8697428797       -3.1754662069        1.1091461747
 C          5.2816703451       -2.2764363274        0.2343032204
 O          5.5874746181       -2.3888562005       -1.0919188572
 C          5.0183863031       -1.4991465693       -1.9576133178
 C          5.3453777952       -1.6076915678       -3.2994602322
 C          4.8037277962       -0.7258248907       -4.2186548702
 C          3.9347350856        0.2702213257       -3.7942593108
 C          3.5999283685        0.3867216254       -2.4590736997
 C          4.1305529304       -0.4957202762       -1.5192017535
 C          3.5123178014        1.7904887803        0.8076038534
 C          2.6662874339        2.8154059332        1.2260823171
 C          1.3139000693        2.6477495707        1.1298430771
 H         -3.0125121714        3.8495831125        1.4615364713
 H         -4.5560925069        2.0284404328        0.7089073888
 H         -2.4402365104        0.5941097935       -2.1968331839
 H         -2.5667816949       -0.2264003304       -4.5061785989
 H         -4.0982137851       -2.0815112773       -5.0903082522
 H         -5.5452752262       -3.0725664097       -3.3314859076
 H         -7.1127063904       -3.2926721988        0.9666736053
 H         -7.0740318661       -2.6018903196        3.3523903876
 H         -5.4475299008       -0.8927827844        4.1005919310
 H         -3.9168566600        0.1477855569        2.4912985477
 H         -1.1989827804       -0.4954948197       -0.1303999107
 H          1.1892882538       -0.4841881523       -0.2136737736
 H          3.4412721127       -0.4927308192        2.4505936781
 H          4.4940355209       -2.0916534209        3.9980507716
 H          6.0513350811       -3.8104194217        3.1393596823
 H          6.5416614668       -3.9170373469        0.7079329668
 H          6.0271491835       -2.3869974394       -3.5998690422
 H          5.0630178436       -0.8143014960       -5.2615314790
 H          3.5170948840        0.9633728272       -4.5073400413
 H          2.9293681064        1.1631855564       -2.1270752306
 H          4.5841961182        1.8877437289        0.8646426680
 H          3.0685679216        3.7356440905        1.6199019959
