108
 energy: -173.500420040990 gnorm: 0.000062197738 xtb: 6.7.1 (edcfbbe)
O           -0.01980467916708        4.84512229260649        0.56075013364187
C           -0.01769026006012        3.63640277475372        0.38763808641800
C            1.24758622974499        2.87241639240903        0.28653475066888
C            1.34467565601086        1.54572193859022        0.70764893844126
C            2.55504180732113        0.88418765977187        0.64606734458088
C            3.68609774859261        1.53387123742678        0.15831383499355
N            4.92715691068418        0.85108390536262        0.09866390971074
C            5.10531128500289       -0.14958064080079       -0.84935869974982
C            4.09103063066965       -0.44668514449238       -1.76452044437010
C            4.25503996855200       -1.44012234084431       -2.70834929130761
C            5.43845118798605       -2.15599958102467       -2.77085570174581
C            6.45537895940067       -1.84949818521661       -1.88642523121051
C            6.30875265379924       -0.85445517685883       -0.93117852636129
C            7.48109560903359       -0.55898841767658       -0.01844754975362
C            8.66898128746478       -0.15943416981940       -0.87313094500924
C            8.58126489539273        0.95991195321469       -1.69093521834930
C            9.64430545196951        1.35514074820351       -2.47976752133194
C           10.82356511291809        0.62642614096254       -2.45999899142615
C           10.93086099341762       -0.48910494539315       -1.65479849779093
C            9.85612624052680       -0.88343158523664       -0.86124375416452
O           10.05096677629226       -2.00022081277133       -0.09529645137151
C            9.03067499655968       -2.43932347148488        0.70338121286659
C            9.28938165578166       -3.58279863517635        1.45561930557824
C            8.31763207799656       -4.09675107452888        2.28976292548456
C            7.08202861332731       -3.47443326861013        2.37875651250285
C            6.83046676131558       -2.34055586780191        1.63075416111519
C            7.79502637366786       -1.80698119928231        0.78559414897484
C            7.17946222823545        0.56715070627546        0.94937508708955
C            8.17053798748130        0.94708922433323        1.84235320744213
C            7.95543527381479        1.94016893250637        2.77917407462325
C            6.71511093384773        2.55271551527813        2.83602138858220
C            5.71714178057858        2.18858316340329        1.95504797427408
C            5.93779178870573        1.20659785771826        0.98460103809200
C            3.59563432309886        2.85977899213429       -0.25894281474923
C            2.38873117970843        3.52359526922962       -0.18403000599816
C           -1.28439433578189        2.87020099807600        0.28218084425711
C           -1.41961874965660        1.79090577124109       -0.59020308001803
C           -2.62349550132912        1.11912405467909       -0.68174968640977
C           -3.70263864436303        1.50860380167665        0.10578783019737
N           -4.93294212906909        0.80201323049123        0.02831650581630
C           -5.25894236398619       -0.09259251943914        1.03837322163814
C           -4.36639160312223       -0.32787382131908        2.08824239039845
C           -4.67847522781503       -1.21463587001921        3.09863309385851
C           -5.88483965270303       -1.89380306378386        3.08368853773244
C           -6.76383435087979       -1.67932073761153        2.03854829345516
C           -6.46793591999886       -0.79242849196593        1.01417034647130
C           -7.47418184267194       -0.62494105595644       -0.10702179631239
C           -8.77312534104359       -0.11235251011129        0.48651833906961
C           -8.79693471562372        1.11967572273019        1.12756057768185
C           -9.95922261071737        1.61307208092257        1.68805613014773
C          -11.12773042245700        0.87081338187207        1.61311867498369
C          -11.12581304647427       -0.35479750345127        0.97896066480708
C           -9.95133489265160       -0.84751271408951        0.41496679885360
O          -10.04235774373829       -2.06891370463981       -0.19473595184570
C           -8.92430451014916       -2.60140931690538       -0.77642626877181
C           -9.08505789837326       -3.83923564041826       -1.39467741064324
C           -8.01042040583587       -4.45150788209336       -2.00667357490737
C           -6.76909400309391       -3.83420796471029       -2.00565617384774
C           -6.61504165398207       -2.60619627164316       -1.39177626705856
C           -7.68390012548533       -1.97292260221607       -0.77060136511594
C           -7.00031447081577        0.36190333089656       -1.15495486745269
C           -7.82157018430734        0.61018762801779       -2.24457909283025
C           -7.46372834005835        1.51576389088164       -3.22587283433570
C           -6.26404263019946        2.19693722138386       -3.10829415420205
C           -5.43290744791244        1.96267490516506       -2.03172807924450
C           -5.77988608773653        1.03345396035894       -1.04674656475585
C           -3.57677092420089        2.59341068710612        0.96817618083427
C           -2.37939652772848        3.27619415140676        1.04368766691029
H            0.48007725523147        1.04240381815202        1.11228368612476
H            2.63432146733833       -0.14021668454266        0.97814164888712
H            3.16854494477117        0.11208335746494       -1.74053514253290
H            3.45366123160378       -1.65142576966065       -3.40084573254315
H            5.57233033904392       -2.93584548406081       -3.50478611412694
H            7.39055582053143       -2.38978684991949       -1.93514826125129
H            7.65917298805597        1.52269586038107       -1.70224937257076
H            9.55530715960739        2.22849160915862       -3.10777295321757
H           11.66047118550762        0.92683022228897       -3.07220494857927
H           11.83658593113880       -1.07503703082591       -1.61993553489940
H           10.25983053684812       -4.04662283624025        1.36668968630904
H            8.52505514959173       -4.98285004956612        2.87046987296003
H            6.31848016537868       -3.87242311230716        3.02958712615666
H            5.87054493327132       -1.84972740212615        1.69698487985495
H            9.12833984423841        0.44740647948111        1.80016343018958
H            8.74150711049514        2.22328652599006        3.46224379552350
H            6.51830845288372        3.31748543322115        3.57279533080797
H            4.75291181943106        2.66779283730058        2.02396431205270
H            4.47578846126917        3.36209627375443       -0.63154289299269
H            2.30469199624956        4.55354030316100       -0.49820322741096
H           -0.58890239995779        1.49204959136027       -1.21125982197356
H           -2.73572629040119        0.28859105082985       -1.36259677342575
H           -3.41901245481610        0.18823776273870        2.10964529728574
H           -3.97285456635131       -1.37593179666572        3.90022061925549
H           -6.13633150242218       -2.58661734613791        3.87201306018168
H           -7.70421564759622       -2.21197287612664        2.01091306156343
H           -7.88338126023325        1.69351612409674        1.18184462193660
H           -9.95529968898474        2.57282345711192        2.18198078611905
H          -12.04140090826003        1.24658082679367        2.04836102098242
H          -12.02087473324891       -0.95331582017823        0.90518575984466
H          -10.06227042438867       -4.29711269711909       -1.38014148283222
H           -8.14205641124233       -5.41091774321853       -2.48373082552385
H           -5.92545551127487       -4.30960422508166       -2.48246231717501
H           -5.65088210681531       -2.11912268285429       -1.38730991132993
H           -8.76167497346150        0.08140827323088       -2.31892547282074
H           -8.11681659091061        1.69279595418087       -4.06659074621960
H           -5.97184258333014        2.91862039245268       -3.85677914148935
H           -4.50617011809726        2.50937205920240       -1.94820052593815
H           -4.41943189134742        2.89543070192107        1.57185423183567
H           -2.27049486500054        4.12710815866772        1.69981665130089
