  86
       -130.89385994
 C         13.0238412857        0.1479377773       -0.3961892910
 C         12.2171066513       -1.1365055789       -0.1604673074
 C         12.7434597317       -1.8046872554        1.1123446879
 C         12.4267446143       -2.1061735491       -1.3319429500
 C         10.7408912383       -0.7840753474       -0.0697337339
 C         10.1173335375       -0.1678127491       -1.1519637876
 C          8.7781993971        0.1664546447       -1.1212288718
 C          8.0296798270       -0.1077233587        0.0112005257
 N          6.6384066100        0.2352885198        0.0531569266
 C          6.3279954994        1.5849455910        0.0989525708
 O          7.2051737430        2.4258881918        0.1168768054
 C          4.8944756000        1.9211393477        0.1350389683
 C          4.5167736405        3.2476275083        0.1561225451
 C          3.1647606849        3.5870334181        0.1737763015
 C          2.2013313597        2.6095672594        0.1893856489
 C          2.5404218776        1.2416578268        0.1946129066
 C          1.5672729600        0.1928805264        0.2141133231
 C          0.1558666876        0.4906130074        0.3393905377
 C         -0.8337293446       -0.2900103731       -0.1281497306
 C         -2.2539354261       -0.0553682452        0.0000733615
 C         -2.7929888241        1.0661117285        0.6786051638
 C         -4.1385047801        1.2474236784        0.7840374095
 C         -5.0486330038        0.3209063209        0.2254248811
 C         -6.4372053210        0.4798880406        0.3356057387
 C         -7.3052103991       -0.4448322645       -0.2089318979
 N         -8.6847246072       -0.2839658670       -0.1107263134
 C         -9.2502723631        0.9993513619       -0.1258209450
 C        -10.3286498679        1.3047930529        0.7028870919
 C        -10.8912823434        2.5664454695        0.6746436186
 C        -10.3862467318        3.5410867570       -0.1700752588
 C         -9.3125634117        3.2428340110       -0.9933194216
 C         -8.7481854182        1.9822189967       -0.9778455496
 C         -9.5156223398       -1.4030909393        0.0351305891
 C         -9.1105333887       -2.4875672167        0.8125124982
 C         -9.9311464564       -3.5907391182        0.9476781528
 C        -11.1667808098       -3.6264344700        0.3226860184
 C        -11.5768156918       -2.5478305097       -0.4441381895
 C        -10.7596008066       -1.4442172104       -0.5932929625
 C         -6.7780714583       -1.5685520630       -0.8898006641
 C         -5.4323379659       -1.7433452549       -1.0066243093
 C         -4.5242157654       -0.8118394620       -0.4538477592
 C         -3.1348655659       -0.9678969147       -0.5535559904
 C          2.0054638388       -1.1225176295        0.1511210039
 C          3.3536211202       -1.4441327155        0.0875487578
 C          4.3147849877       -0.4507291426        0.0954703199
 C          3.9187240752        0.9016031730        0.1452843989
 C          5.7343658049       -0.8194471455        0.0449078415
 O          6.1225972730       -1.9699284296       -0.0113302395
 C          8.6270649648       -0.7149205969        1.1005013527
 C          9.9687964968       -1.0503229899        1.0540537065
 H         14.0861667616       -0.0811560525       -0.4462141287
 H         12.8587652966        0.8493268126        0.4186815994
 H         12.7354213459        0.6320162407       -1.3245259566
 H         12.6415693485       -1.1449539315        1.9705930209
 H         12.2171156072       -2.7350106620        1.3110980875
 H         13.7995924109       -2.0356671822        0.9895584049
 H         13.4755449360       -2.3864337308       -1.4027179031
 H         12.1294028578       -1.6575873104       -2.2753703905
 H         11.8365736968       -3.0076361886       -1.1822471065
 H         10.6799289000        0.0577775455       -2.0444851541
 H          8.3127437279        0.6431935894       -1.9707148405
 H          5.2846589749        4.0062231927        0.1487936704
 H          2.8775963317        4.6276228295        0.1715548572
 H          1.1625827167        2.9011962654        0.1831013486
 H         -0.0918867345        1.4078207200        0.8520549571
 H         -0.5756966809       -1.1844550620       -0.6815608197
 H         -2.1261290238        1.7902237052        1.1205759048
 H         -4.5348960964        2.1084634319        1.3033064350
 H         -6.8262481685        1.3400569213        0.8615974593
 H        -10.7185391821        0.5481121750        1.3680477639
 H        -11.7250389266        2.7912947956        1.3230846260
 H        -10.8264057142        4.5263066554       -0.1873438360
 H         -8.9161868763        3.9944777950       -1.6598298605
 H         -7.9180427566        1.7479485772       -1.6283669854
 H         -8.1526090420       -2.4557014313        1.3113740487
 H         -9.6063148746       -4.4237829833        1.5532985756
 H        -11.8066272587       -4.4883723657        0.4335324788
 H        -12.5373263819       -2.5687341859       -0.9372487708
 H        -11.0763438278       -0.6074562885       -1.1986688266
 H         -7.4633835077       -2.2789181596       -1.3284727135
 H         -5.0403717796       -2.5995604576       -1.5365570804
 H         -2.7504100975       -1.8336484662       -1.0761680938
 H          1.2818165061       -1.9223169631        0.1872776590
 H          3.6763702958       -2.4736352708        0.0468878643
 H          8.0423104025       -0.9309554890        1.9819617470
 H         10.4010705157       -1.5254932654        1.9184365604
