  92
       -146.87001261
 C          5.5321061194        4.6230147929       -3.5086147788
 C          4.1625046798        4.6934969065       -3.3107434453
 C          3.5937459951        4.1896266265       -2.1581874584
 C          4.3917344489        3.5963136172       -1.1772570300
 N          3.8096016837        3.0797484239       -0.0228195806
 C          4.5154514073        3.0031184792        1.1818594126
 C          4.3603737196        1.8889067000        2.0076283022
 C          5.0624165573        1.8005475435        3.1930176211
 C          5.9247665383        2.8154308551        3.5752704368
 C          6.0741232557        3.9283530689        2.7634915587
 C          5.3748876460        4.0281533922        1.5764395813
 C          2.5080212855        2.5552199505       -0.0617793756
 C          1.6010211996        2.8678675343        0.9494200514
 C          0.3384423468        2.3110300698        0.9506039841
 C         -0.0378568395        1.4034748011       -0.0358910069
 C         -1.3333048548        0.7064154271        0.0211348541
 C         -2.5179062367        1.4244245722        0.0590637768
 C         -3.7586275678        0.7911525846        0.0483261062
 N         -4.9058393640        1.4590658859        0.0814028056
 C         -6.0799892508        0.8525465695        0.0585173119
 C         -6.1183967150       -0.5968445693       -0.0005365044
 N         -4.9787621552       -1.2642359964       -0.0364036011
 C         -3.7966729813       -0.6575632029       -0.0140006301
 C         -2.5924508573       -1.3552514868       -0.0330198394
 C         -1.3693948716       -0.7010925915       -0.0002932024
 C         -0.1123842248       -1.4571543290        0.0546621198
 C          0.8570153669       -1.1214442254        1.0015634450
 C          2.0878579684       -1.7342501864        0.9984586046
 C          2.3893991352       -2.7066462299        0.0439449527
 N          3.6847669500       -3.2345239549       -0.0111389861
 C          4.7545075516       -2.3459033992        0.1475909420
 C          4.6791501291       -1.0665740941       -0.4054699707
 C          5.7165817356       -0.1722576403       -0.2372614603
 C          6.8421556419       -0.5336312214        0.4853860140
 C          6.9248274379       -1.8040163541        1.0320680257
 C          5.8926837633       -2.7080409159        0.8669426402
 C          3.8946937378       -4.5914796507       -0.2446452679
 C          2.9708832397       -5.5343010213        0.2103615510
 C          3.1729556440       -6.8788928213       -0.0291998255
 C          4.2972392809       -7.3092321432       -0.7153024138
 C          5.2193474169       -6.3783776953       -1.1659306711
 C          5.0229747186       -5.0303996293       -0.9396607077
 C          1.3994097976       -3.1029311286       -0.8539722523
 C          0.1637580977       -2.4872776131       -0.8410824312
 C         -7.3759928447       -1.2126532581       -0.0145094055
 S         -7.6333076485       -2.9340323854       -0.0743505525
 C         -9.3451973749       -2.6921219428       -0.0494995389
 C         -9.7060820551       -1.3888980727       -0.0002425897
 C         -8.5904174628       -0.5120676545        0.0212860504
 C         -8.5529016839        0.8985432809        0.0727242528
 C         -9.6200857237        1.8330099647        0.1123926426
 C         -9.1901279591        3.1152853991        0.1574454927
 S         -7.4675373103        3.2664867699        0.1552099514
 C         -7.3025680038        1.5339681185        0.0903960451
 C          0.8590612708        1.1278840139       -1.0675537854
 C          2.1112101588        1.7026470580       -1.0905729701
 C          5.7714094312        3.5272337986       -1.3840827506
 C          6.3301671410        4.0391182191       -2.5384839816
 H          5.9734332469        5.0204579495       -4.4094688299
 H          3.5312923600        5.1529421117       -4.0568684981
 H          2.5272631077        4.2579878998       -2.0033803792
 H          3.6971218199        1.0935969724        1.7030867739
 H          4.9429887316        0.9280400045        3.8182655170
 H          6.4751191953        2.7411047129        4.5006136152
 H          6.7358223548        4.7289076524        3.0597305572
 H          5.4826572063        4.9019393835        0.9507413271
 H          1.9009225112        3.5434678223        1.7371860378
 H         -0.3559082239        2.5526738182        1.7421880506
 H         -2.5013850967        2.5034329807        0.0703473506
 H         -2.6340375906       -2.4334949855       -0.0408273952
 H          0.6348205684       -0.3750403777        1.7481194633
 H          2.8366006442       -1.4612025067        1.7275386634
 H          3.8011236553       -0.7834579009       -0.9664789550
 H          5.6483103269        0.8079466242       -0.6825459194
 H          7.6491959630        0.1699700435        0.6216426913
 H          7.7976265724       -2.0923209969        1.5989308616
 H          5.9549482889       -3.6948509063        1.3017128179
 H          2.1008787984       -5.2027246225        0.7575675299
 H          2.4509618986       -7.5967073162        0.3307354265
 H          4.4535877277       -8.3612583027       -0.8970788328
 H          6.0957941401       -6.7036078010       -1.7066415897
 H          5.7356894377       -4.3069088366       -1.3070874030
 H          1.6173956831       -3.8722714099       -1.5801071421
 H         -0.5835177905       -2.7738088588       -1.5664521472
 H         -9.9858120254       -3.5516501646       -0.0741409646
 H        -10.7268906542       -1.0527534871        0.0209794425
 H        -10.6575113478        1.5515654480        0.1059212064
 H         -9.7837645597        4.0075877776        0.1918795213
 H          0.5685524238        0.4448841673       -1.8517425358
 H          2.8007302760        1.4810187186       -1.8920455867
 H          6.4025955816        3.0690028504       -0.6371063763
 H          7.3984070806        3.9740630049       -2.6839746888
