  92
  -146.319380243700       0.331863664681409      !
 C          5.4475749584        4.0514713953       -3.9129863859
 C          4.0833761207        4.1798272920       -3.7066727992
 C          3.5297862664        3.8782108829       -2.4782241252
 C          4.3391333214        3.4356496168       -1.4307879348
 N          3.7765391036        3.1206841113       -0.1915585067
 C          4.4735727193        3.3775751685        0.9920150609
 C          4.3851202814        2.4909667980        2.0661684492
 C          5.0770815401        2.7449279698        3.2338420927
 C          5.8669077704        3.8774881790        3.3505616281
 C          5.9577242183        4.7605694618        2.2866810009
 C          5.2665531366        4.5187220109        1.1157177493
 C          2.5090230304        2.5302989222       -0.1330295604
 C          1.5941639070        2.9081129622        0.8495983864
 C          0.3517483678        2.3111941974        0.9135673395
 C         -0.0046795673        1.3074515810        0.0167012906
 C         -1.3045512502        0.6245950193        0.1023477068
 C         -2.4788434075        1.3616261412        0.1100214331
 C         -3.7285195633        0.7480456134        0.0939338542
 N         -4.8648729365        1.4355526761        0.1020791515
 C         -6.0482047957        0.8489527602        0.0646686390
 C         -6.1104656758       -0.5997750972        0.0055415785
 N         -4.9817351202       -1.2868154750        0.0022189561
 C         -3.7902862614       -0.7007436763        0.0500322167
 C         -2.5971352911       -1.4178810465        0.0719816053
 C         -1.3653176747       -0.7820886160        0.1155175164
 C         -0.1177655446       -1.5499127174        0.2085131395
 C          0.8291157400       -1.2152885989        1.1778492717
 C          2.0602341983       -1.8277605553        1.2037809089
 C          2.3909835607       -2.7866840945        0.2444033237
 N          3.6862503487       -3.3098451745        0.1995081477
 C          4.7710164457       -2.4640502770        0.4484149336
 C          4.7216251164       -1.1196214833        0.0735265912
 C          5.7876858402       -0.2835610219        0.3375013252
 C          6.9213229447       -0.7681500847        0.9698471940
 C          6.9800983619       -2.1031526159        1.3357749735
 C          5.9160582417       -2.9471802176        1.0826779142
 C          3.8901603476       -4.6455229376       -0.1585865439
 C          3.0058035436       -5.6312158652        0.2807852176
 C          3.1958070113       -6.9491301800       -0.0854925476
 C          4.2682067794       -7.3068926537       -0.8866645849
 C          5.1523302629       -6.3325351606       -1.3212667615
 C          4.9679449899       -5.0108046467       -0.9654888248
 C          1.4199332785       -3.1823485733       -0.6757877642
 C          0.1796127622       -2.5774114121       -0.6828995553
 C         -7.3781400285       -1.1924644191       -0.0424314203
 S         -7.6651529067       -2.9083301831       -0.1260649526
 C         -9.3726200729       -2.6353474416       -0.1406565391
 C         -9.7108984564       -1.3263486170       -0.0845343032
 C         -8.5805383988       -0.4703183899       -0.0272730997
 C         -8.5196976035        0.9387328703        0.0406368857
 C         -9.5706087764        1.8916581854        0.0778655580
 C         -9.1186475055        3.1654337271        0.1438890252
 S         -7.3938121696        3.2860813635        0.1624868805
 C         -7.2589281607        1.5516324072        0.0816739549
 C          0.9049390522        0.9522342757       -0.9796689291
 C          2.1407499967        1.5546003178       -1.0597519152
 C          5.7123294675        3.3089864815       -1.6444661274
 C          6.2567075726        3.6169835519       -2.8758050329
 H          5.8767944947        4.2895748686       -4.8739700880
 H          3.4452953196        4.5254084185       -4.5064349653
 H          2.4675937086        3.9875591442       -2.3168631032
 H          3.7793973950        1.6020635186        1.9714378007
 H          5.0057872696        2.0481056036        4.0558333864
 H          6.4073205001        4.0712821829        4.2643124553
 H          6.5644378079        5.6498968249        2.3716421846
 H          5.3286710454        5.2139371952        0.2914093770
 H          1.8669596728        3.6740327043        1.5607513125
 H         -0.3472460991        2.6095754489        1.6813088578
 H         -2.4460013401        2.4401732954        0.0964702317
 H         -2.6551521345       -2.4954061567        0.0823025728
 H          0.5888312785       -0.4668227724        1.9172705689
 H          2.7877567892       -1.5573682334        1.9547237798
 H          3.8438283148       -0.7371741868       -0.4253322740
 H          5.7341771861        0.7524185910        0.0406107823
 H          7.7515013191       -0.1099801195        1.1758561755
 H          7.8577936108       -2.4897363518        1.8321875474
 H          5.9597606825       -3.9838940320        1.3825950871
 H          2.1742971768       -5.3531519103        0.9115863890
 H          2.5050821323       -7.7026863648        0.2624412691
 H          4.4139205042       -8.3377411144       -1.1705723875
 H          5.9875596722       -6.6019746876       -1.9505425508
 H          5.6503229647       -4.2502645312       -1.3156731475
 H          1.6568302523       -3.9424700055       -1.4055225790
 H         -0.5519476724       -2.8659553264       -1.4234252236
 H        -10.0277994420       -3.4827238255       -0.1911769224
 H        -10.7256303046       -0.9716405169       -0.0843821746
 H        -10.6127034397        1.6290083632        0.0569184847
 H         -9.6969206143        4.0675973675        0.1829247854
 H          0.6345966862        0.1927973624       -1.6975933773
 H          2.8362483901        1.2700851448       -1.8359504547
 H          6.3486576734        2.9675764101       -0.8411756562
 H          7.3206689364        3.5107870157       -3.0275038005
  92
  -146.319227698800       0.282393647237522      !
 C          4.5909635763        6.2296359857       -3.4921134741
 C          3.4501537079        6.2129363147       -2.7058851490
 C          3.1855554414        5.1391312374       -1.8787064027
 C          4.0625053797        4.0546976778       -1.8331519309
 N          3.7949257462        2.9613389850       -1.0060978507
 C          4.8437855651        2.2740373844       -0.3836140760
 C          4.8013425232        0.8844484129       -0.2583961632
 C          5.8274363027        0.2120789542        0.3745246785
 C          6.9106666304        0.9065085012        0.8883542128
 C          6.9622551844        2.2849564762        0.7588971499
 C          5.9391704168        2.9680492196        0.1300042317
 C          2.4862833315        2.5143068372       -0.8119474971
 C          2.1124081510        1.9804493122        0.4232493032
 C          0.8619516954        1.4350618189        0.5955225382
 C         -0.0647285942        1.4225651616       -0.4476823003
 C         -1.3471017397        0.7295619019       -0.2678485695
 C         -2.5471947838        1.3759358302       -0.5207323297
 C         -3.7733184606        0.7655645246       -0.2708193106
 N         -4.9350531238        1.3698684679       -0.4935512491
 C         -6.0951974070        0.7955591805       -0.2289476924
 C         -6.1024099852       -0.5492355782        0.3168400908
 N         -4.9486135055       -1.1555867549        0.5339298522
 C         -3.7802043981       -0.5795298657        0.2731273350
 C         -2.5612009989       -1.2164715360        0.4902351576
 C         -1.3532274164       -0.5923499618        0.2172711389
 C         -0.0828071883       -1.3118710848        0.3922233353
 C          0.2370796832       -1.9387627915        1.5939122989
 C          1.4679027181       -2.5358947300        1.7734303338
 C          2.4087443423       -2.5393436043        0.7436924435
 N          3.6734010388       -3.1062488575        0.9422186266
 C          4.3319097491       -2.8902663426        2.1569291623
 C          4.2211620374       -1.6594122007        2.8051849752
 C          4.8781720449       -1.4432147498        4.0002812961
 C          5.6536218778       -2.4423274839        4.5662682348
 C          5.7634433967       -3.6672799921        3.9281218649
 C          5.1074420404       -3.8956517313        2.7343263891
 C          4.2797591155       -3.8440811101       -0.0754337817
 C          3.5053820848       -4.6184913591       -0.9412080605
 C          4.1034612152       -5.3403118434       -1.9549544442
 C          5.4785540052       -5.3110110431       -2.1224121171
 C          6.2533302205       -4.5490215780       -1.2633710650
 C          5.6645030933       -3.8187573502       -0.2499812834
 C          2.0719811140       -1.9611871615       -0.4803354124
 C          0.8464660461       -1.3555485636       -0.6476700656
 C         -7.3460010279       -1.1320480090        0.5892923124
 S         -7.5667270967       -2.7310335106        1.2434628014
 C         -9.2829259633       -2.5210467584        1.2124483623
 C         -9.6711333968       -1.3154122617        0.7363654082
 C         -8.5748502498       -0.4928159378        0.3684849024
 C         -8.5675924659        0.8161332891       -0.1609080486
 C         -9.6540951634        1.6747254730       -0.4712237532
 C         -9.2518275530        2.8686734676       -0.9648114190
 S         -7.5335801314        3.0234353384       -1.0829237593
 C         -7.3317308029        1.4164406332       -0.4427586475
 C          0.2797272637        2.0363454921       -1.6486008464
 C          1.5413774232        2.5635025534       -1.8372931608
 C          5.2091238076        4.0760316589       -2.6282943543
 C          5.4682417482        5.1581487371       -3.4461608524
 H          4.7947937410        7.0712845007       -4.1359805913
 H          2.7636767940        7.0461900637       -2.7310366386
 H          2.3021797003        5.1331541325       -1.2573634261
 H          3.9592741984        0.3396126631       -0.6583249160
 H          5.7821288026       -0.8621060745        0.4627233093
 H          7.7077657597        0.3764475136        1.3867250563
 H          7.8009877328        2.8349998373        1.1589303786
 H          5.9755345120        4.0437599546        0.0395281293
 H          2.8201924757        1.9862533587        1.2388199386
 H          0.5888474459        1.0150352454        1.5514651956
 H         -2.5531695604        2.3905227254       -0.8883339207
 H         -2.5802099521       -2.2313258844        0.8566890602
 H         -0.4788812126       -1.9328384689        2.4028068388
 H          1.7146056672       -3.0003581306        2.7169370059
 H          3.6264377755       -0.8766432164        2.3586230647
 H          4.7909964463       -0.4837883730        4.4883408503
 H          6.1676188949       -2.2684843921        5.4990789268
 H          6.3587105210       -4.4544566552        4.3665689010
 H          5.1862341057       -4.8539884291        2.2422979094
 H          2.4344585831       -4.6529208754       -0.8068908163
 H          3.4909624152       -5.9370980835       -2.6144295870
 H          5.9424640870       -5.8782503027       -2.9145181830
 H          7.3256805523       -4.5156443072       -1.3871468491
 H          6.2763950005       -3.2231604664        0.4113593205
 H          2.7849231837       -1.9806535527       -1.2917673568
 H          0.6020943199       -0.9017923042       -1.5960142262
 H         -9.9046526918       -3.3237682578        1.5572599776
 H        -10.6984418061       -1.0122194706        0.6459681975
 H        -10.6847768645        1.4048732014       -0.3285405985
 H         -9.8640029087        3.6921933906       -1.2760046903
 H         -0.4335009339        2.0526131139       -2.4597838599
 H          1.8127583436        2.9899415465       -2.7916349926
 H          5.8874739882        3.2358396821       -2.6036277445
 H          6.3576020768        5.1602354962       -4.0586718421
  92
  -146.319001464300       0.222271993718766      !
 C          4.6312786425        6.8403754359       -2.1252640505
 C          3.4693020966        6.2419202057       -2.5851707513
 C          3.1946080324        4.9225218128       -2.2848747764
 C          4.0834400496        4.1781533258       -1.5070023053
 N          3.8063025330        2.8480826173       -1.2020833764
 C          4.8317756363        1.9137456777       -1.0127668825
 C          5.9649675761        1.9115311358       -1.8249759566
 C          6.9507577586        0.9616196242       -1.6362789709
 C          6.8266425632        0.0067566113       -0.6401661090
 C          5.7065788169        0.0110140206        0.1753198263
 C          4.7144590873        0.9526932818       -0.0075607471
 C          2.4887730040        2.3985668072       -1.0544732172
 C          1.5312057154        3.1434667799       -0.3680617245
 C          0.2735364358        2.6190860218       -0.1440664223
 C         -0.0589692435        1.3415040576       -0.5884453258
 C         -1.3417598691        0.7128706471       -0.2513428600
 C         -2.5388738438        1.3891536081       -0.4397163454
 C         -3.7682757576        0.7851949820       -0.1926588328
 N         -4.9260495475        1.4138850409       -0.3668842442
 C         -6.0901071066        0.8287972490       -0.1475242469
 C         -6.1077245409       -0.5519360092        0.2981288768
 N         -4.9578561684       -1.1792873700        0.4757152446
 C         -3.7864506725       -0.5926642705        0.2609637258
 C         -2.5707683342       -1.2415919701        0.4649425170
 C         -1.3601198646       -0.6093100321        0.2330531283
 C         -0.0917237112       -1.2964338728        0.5289656814
 C          0.8255582774       -0.7199012034        1.4064742542
 C          2.0540102155       -1.3031815536        1.6298957605
 C          2.4059147896       -2.4704287955        0.9549682829
 N          3.6878284810       -3.0266230130        1.1031095877
 C          4.2370028302       -3.1708154623        2.3743358844
 C          5.6144946297       -3.0773018137        2.5853573262
 C          6.1361550478       -3.2179504625        3.8562437024
 C          5.3026878555       -3.4468321781        4.9389665241
 C          3.9347215091       -3.5362892174        4.7374957343
 C          3.4029150310       -3.4029923844        3.4706053975
 C          4.4035118500       -3.3497666081       -0.0524847035
 C          5.2558604884       -4.4533487459       -0.0860244130
 C          5.9691056854       -4.7442444995       -1.2326857656
 C          5.8407685920       -3.9503758344       -2.3610210339
 C          4.9824756315       -2.8629453512       -2.3375493965
 C          4.2666030767       -2.5616852873       -1.1964637747
 C          1.4781774931       -3.0735535552        0.1081128766
 C          0.2375187554       -2.5012797897       -0.0859849651
 C         -7.3551090849       -1.1486638716        0.5170535346
 S         -7.5862394725       -2.7911052706        1.0468765508
 C         -9.3015876016       -2.5732860682        1.0162559401
 C         -9.6818697592       -1.3336689032        0.6294699993
 C         -8.5798132078       -0.4896294088        0.3346575964
 C         -8.5629798665        0.8550811691       -0.0955971973
 C         -9.6439725910        1.7381053519       -0.3518722946
 C         -9.2336107085        2.9630267487       -0.7543975392
 S         -7.5139387852        3.1191642342       -0.8469021643
 C         -7.3228923734        1.4695473538       -0.3228907508
 C          0.8782530983        0.6379746897       -1.3477722618
 C          2.1315163216        1.1545393810       -1.5765858692
 C          5.2489650127        4.7885692968       -1.0399993312
 C          5.5172979306        6.1062722540       -1.3531751384
 H          4.8445255105        7.8703559376       -2.3660860814
 H          2.7742204621        6.8044490946       -3.1906745603
 H          2.2951610188        4.4545942272       -2.6568122009
 H          6.0590372196        2.6497606911       -2.6077995079
 H          7.8192674873        0.9628687870       -2.2780825062
 H          7.5971237478       -0.7360596141       -0.5010509327
 H          5.6071006145       -0.7165805360        0.9656378402
 H          3.8394908019        0.9529372890        0.6252434112
 H          1.7909299061        4.1193540065        0.0152900653
 H         -0.4479449010        3.1874054110        0.4244117711
 H         -2.5404676965        2.4002967003       -0.8165850438
 H         -2.5944609673       -2.2537657924        0.8386975594
 H          0.5700817136        0.2020644562        1.9072083150
 H          2.7602466446       -0.8505699431        2.3106186367
 H          6.2725899238       -2.8902255681        1.7499737864
 H          7.2034010711       -3.1398192845        4.0026944640
 H          5.7154487436       -3.5550179938        5.9301032095
 H          3.2758254270       -3.7205931157        5.5729165321
 H          2.3371149340       -3.4844766463        3.3167627865
 H          5.3486493605       -5.0811284329        0.7879667519
 H          6.6256821800       -5.6015491819       -1.2467896003
 H          6.4036137396       -4.1792722494       -3.2527886342
 H          4.8781384820       -2.2370409586       -3.2115717433
 H          3.6068762146       -1.7077287663       -1.1740059066
 H          1.7449189345       -3.9877244899       -0.4019028351
 H         -0.4747216126       -2.9705812030       -0.7490305139
 H         -9.9286459716       -3.3976056872        1.2936468761
 H        -10.7074674315       -1.0208923257        0.5532972326
 H        -10.6767256743        1.4625557585       -0.2378053190
 H         -9.8403793456        3.8094422811       -1.0099456510
 H          0.6131646632       -0.3207329662       -1.7650644037
 H          2.8554414262        0.5983209948       -2.1539247360
 H          5.9347819513        4.2241993379       -0.4255510921
 H          6.4227644121        6.5655944489       -0.9851154463
  92
  -146.318090060000       8.472904847918858E-002 !
 C          3.7983681587        7.6488043636       -0.7781872979
 C          4.6671291955        7.0347836310        0.1093210030
 C          4.6533136692        5.6629039399        0.2686665700
 C          3.7678773330        4.8791929540       -0.4719805606
 N          3.7324992754        3.4905181506       -0.3257021287
 C          4.8812392411        2.7693740789        0.0028274507
 C          4.8066653626        1.6761213478        0.8681797333
 C          5.9521546434        0.9965029479        1.2297437567
 C          7.1865060616        1.3889640549        0.7380467629
 C          7.2631422897        2.4535871870       -0.1449129071
 C          6.1228496640        3.1382861746       -0.5166764485
 C          2.4954292486        2.8317955507       -0.3585450074
 C          1.3901211932        3.3692521920        0.2988788525
 C          0.1976735989        2.6787465280        0.3272115704
 C          0.0672463553        1.4408045841       -0.3023392828
 C         -1.1896140306        0.6928609508       -0.1752468567
 C         -2.3893820411        1.3696351488       -0.3579881835
 C         -3.6241046981        0.7371142843       -0.2575348477
 N         -4.7758541109        1.3742819796       -0.4363575583
 C         -5.9429823858        0.7610714097       -0.3385810395
 C         -5.9680527527       -0.6545957627       -0.0231510057
 N         -4.8230456798       -1.2913729261        0.1529133056
 C         -3.6485594670       -0.6780315970        0.0532784679
 C         -2.4360710808       -1.3345983965        0.2363041946
 C         -1.2129930318       -0.6824735080        0.1316969109
 C          0.0201337523       -1.4527675763        0.3339453996
 C          1.0819699167       -0.9669781792        1.0998206985
 C          2.2702722587       -1.6606524433        1.1798236126
 C          2.4197535632       -2.8798756539        0.5205008793
 N          3.6495791701       -3.5569760498        0.5494394920
 C          4.8095175846       -2.8667697204        0.1978168531
 C          6.0431245106       -3.2186988417        0.7473653164
 C          7.1933494606       -2.5665327908        0.3484636539
 C          7.1351607958       -1.5497882426       -0.5905428609
 C          5.9083735092       -1.1694927325       -1.1097454270
 C          4.7532371857       -1.8175317069       -0.7222650340
 C          3.6577221210       -4.9334118368        0.7798609198
 C          2.7347944900       -5.4893509529        1.6677218863
 C          2.7234530229       -6.8503557623        1.8999019899
 C          3.6303425006       -7.6791627651        1.2594279038
 C          4.5455443891       -7.1336803497        0.3735505543
 C          4.5603436886       -5.7748088569        0.1278462661
 C          1.3382092820       -3.4097784131       -0.1802931387
 C          0.1602842698       -2.7002915934       -0.2748922099
 C         -7.2197338427       -1.2749746551        0.0771238519
 S         -7.4621492443       -2.9593535826        0.4468043286
 C         -9.1750984311       -2.7479557004        0.3491192462
 C         -9.5472114973       -1.4807632386        0.0539689413
 C         -8.4396739477       -0.6087404226       -0.1085706618
 C         -8.4149366828        0.7693213443       -0.4166741361
 C         -9.4899800623        1.6656382577       -0.6500861943
 C         -9.0715711246        2.9241185302       -0.9191881312
 S         -7.3512249433        3.0973067039       -0.9056760781
 C         -7.1711828908        1.4083820055       -0.5220202901
 C          1.1575281833        0.9447448772       -1.0198805067
 C          2.3578317371        1.6213971756       -1.0380032059
 C          2.8931942086        5.5034060074       -1.3630240373
 C          2.9102563744        6.8762295481       -1.5092817585
 H          3.8112639984        8.7212298696       -0.8972054219
 H          5.3552683326        7.6295136889        0.6915905961
 H          5.3197548686        5.1906219636        0.9752660149
 H          3.8476799954        1.3788294077        1.2651125454
 H          5.8850654603        0.1596473694        1.9090882455
 H          8.0803462513        0.8655707819        1.0396376355
 H          8.2184473763        2.7538394436       -0.5496133068
 H          6.1838530911        3.9657137341       -1.2083133926
 H          1.4852886973        4.3156499546        0.8107502702
 H         -0.6372396628        3.0812775843        0.8811852267
 H         -2.3865417721        2.4168576573       -0.6180754940
 H         -2.4715609043       -2.3810993327        0.4968925939
 H          0.9693231680       -0.0377712715        1.6370307888
 H          3.0983690000       -1.2659445479        1.7499745157
 H          6.0908413069       -4.0077231427        1.4834257056
 H          8.1423005922       -2.8550022848        0.7759446338
 H          8.0368516430       -1.0531452642       -0.9132842207
 H          5.8551021918       -0.3677112536       -1.8313240727
 H          3.8004147906       -1.5310683868       -1.1412526834
 H          2.0327079958       -4.8435908309        2.1742441380
 H          2.0055368930       -7.2655393569        2.5915830535
 H          3.6221375992       -8.7418498376        1.4466532439
 H          5.2483437041       -7.7732249590       -0.1396106938
 H          5.2624653444       -5.3579574509       -0.5789604794
 H          1.4427982276       -4.3649880315       -0.6737812110
 H         -0.6532004231       -3.0959331149       -0.8644210490
 H         -9.8082637837       -3.5961700290        0.5205252491
 H        -10.5704612300       -1.1674462884       -0.0465043359
 H        -10.5244775108        1.3755010279       -0.6162256270
 H         -9.6727579496        3.7865776173       -1.1301487132
 H          1.0564549382        0.0216140931       -1.5698665725
 H          3.2048661309        1.2198398054       -1.5744417583
 H          2.2058648247        4.9010014823       -1.9385706452
 H          2.2303176742        7.3455119035       -2.2046552785
  92
  -146.317594230700       5.013776379877442E-002 !
 C          4.4553291446        7.3332182498        0.0557478664
 C          5.2674385584        6.4711367928        0.7751250225
 C          5.0583761907        5.1069260144        0.7277432576
 C          4.0282808314        4.5815236529       -0.0540108193
 N          3.8022889704        3.2082936428       -0.1166379983
 C          4.8409193764        2.2802673872       -0.0050037548
 C          4.6234035939        1.0706058097        0.6581722664
 C          5.6378275245        0.1404344364        0.7622460576
 C          6.8821954859        0.3949100735        0.2091460647
 C          7.1037492949        1.5930965024       -0.4501175985
 C          6.0956739161        2.5314051243       -0.5604042287
 C          2.4978692524        2.7144796783       -0.2636389335
 C          1.4440135311        3.2091714880        0.5024166360
 C          0.1973112436        2.6216246386        0.4272509252
 C         -0.0328277030        1.5333628519       -0.4129931481
 C         -1.3059793468        0.8054683886       -0.3888712081
 C         -2.5207946520        1.4790610741       -0.3752075188
 C         -3.7354272006        0.8007134728       -0.3411763071
 N         -4.9079039972        1.4251165152       -0.2792102224
 C         -6.0550092432        0.7726376313       -0.2165144829
 C         -6.0396452666       -0.6780028265       -0.2441646976
 N         -4.8772200521       -1.3017980619       -0.3293615082
 C         -3.7222327894       -0.6493524301       -0.3635787659
 C         -2.4917318270       -1.3023447543       -0.3837984534
 C         -1.2974849828       -0.6021202750       -0.3681750902
 C         -0.0258069486       -1.3336233664       -0.2202056041
 C          0.7486176883       -1.1193465053        0.9181700051
 C          1.9522188870       -1.7696496667        1.0832023111
 C          2.4242070851       -2.6242046532        0.0905094294
 N          3.6737858688       -3.2573528945        0.2512391925
 C          4.6615576212       -3.0701295037       -0.7092168849
 C          5.6513603341       -4.0317040946       -0.9234403243
 C          6.6422183518       -3.8127425860       -1.8595124718
 C          6.6609237804       -2.6452021999       -2.6059164758
 C          5.6653968656       -1.7004681737       -2.4174425443
 C          4.6718503258       -1.9061429255       -1.4817243792
 C          3.8797428596       -3.9957822012        1.4165241906
 C          2.8132500846       -4.7039262422        1.9746658021
 C          2.9912028823       -5.4385826565        3.1297061569
 C          4.2298828539       -5.4820552893        3.7488545289
 C          5.2888735505       -4.7714420048        3.2071033709
 C          5.1204373372       -4.0289313943        2.0545504125
 C          1.6519443403       -2.8513999911       -1.0447531811
 C          0.4270282949       -2.2285686962       -1.1845950567
 C         -7.2676880277       -1.3446477965       -0.1627023498
 S         -7.4551749053       -3.0759580166       -0.1713236034
 C         -9.1693522582       -2.9035349954       -0.0223838932
 C         -9.5803918486       -1.6153591138        0.0309063200
 C         -8.5044777347       -0.6934243145       -0.0480724934
 C         -8.5205442491        0.7182632179       -0.0195788724
 C         -9.6193582623        1.6087332271        0.0969546266
 C         -9.2412870265        2.9079300859        0.0951535583
 S         -7.5324339435        3.1292926611       -0.0483346418
 C         -7.3004647792        1.4043341155       -0.1083327137
 C          1.0039419177        1.1106211694       -1.2480221237
 C          2.2520273995        1.6836274100       -1.1699589952
 C          3.2109438242        5.4550716434       -0.7740484672
 C          3.4255396350        6.8176276688       -0.7147739517
 H          4.6227435849        8.3984613320        0.0964611174
 H          6.0662865168        6.8650523908        1.3858904971
 H          5.6838135521        4.4391536671        1.3016311189
 H          3.6547400142        0.8702402723        1.0915895908
 H          5.4571475072       -0.7862808327        1.2859540220
 H          7.6716828263       -0.3365103363        0.2879524682
 H          8.0689454231        1.7968977820       -0.8895573367
 H          6.2687139596        3.4600208061       -1.0842684033
 H          1.6212543760        4.0309678681        1.1808040537
 H         -0.5991476770        2.9784238388        1.0633804390
 H         -2.5472028640        2.5574622319       -0.3994505848
 H         -2.4911555305       -2.3813638929       -0.3627066521
 H          0.3965472457       -0.4339540500        1.6748211861
 H          2.5452164057       -1.6137689865        1.9726957198
 H          5.6333856387       -4.9509893529       -0.3569556452
 H          7.4029563621       -4.5642312760       -2.0118604822
 H          7.4412169134       -2.4768030764       -3.3320925396
 H          5.6692612012       -0.7879179419       -2.9954257481
 H          3.9066428255       -1.1607548266       -1.3273875503
 H          1.8494451591       -4.6785890818        1.4879575656
 H          2.1586994050       -5.9879584417        3.5436571839
 H          4.3679447587       -6.0626084545        4.6479039360
 H          6.2539521468       -4.7880146173        3.6917171015
 H          5.9460066612       -3.4647156368        1.6462283854
 H          2.0195023986       -3.5197871897       -1.8097868125
 H         -0.1762089105       -2.4143960542       -2.0615873715
 H         -9.7726281783       -3.7891287186        0.0169304187
 H        -10.6101622838       -1.3213128879        0.1236194932
 H        -10.6409316997        1.2844003223        0.1786438544
 H         -9.8669859934        3.7754533423        0.1702821316
 H          0.8236912253        0.3279992241       -1.9675875894
 H          3.0556419110        1.3352946815       -1.8023262365
 H          2.4150569664        5.0537129090       -1.3840777497
 H          2.7892482704        7.4810408720       -1.2815967174
  92
  -146.317063863300       2.860388208433989E-002 !
 C          5.5215185615        4.4315591704       -3.7631047889
 C          4.1520122507        4.5107915444       -3.5679033751
 C          3.5851860608        4.0701091117       -2.3888087787
 C          4.3850672566        3.5326986574       -1.3776656231
 N          3.8048882184        3.0794241605       -0.1959810230
 C          4.5120712089        3.0700633628        1.0103158106
 C          4.3595232325        2.0026291409        1.8961625998
 C          5.0628976813        1.9804925090        3.0838467658
 C          5.9240891175        3.0160872023        3.4088787373
 C          6.0709322379        4.0829932984        2.5370778943
 C          5.3703459305        4.1164666879        1.3471025594
 C          2.5040683679        2.5516441655       -0.2046707522
 C          1.5976165773        2.9179944135        0.7888354610
 C          0.3358879306        2.3602145843        0.8219595819
 C         -0.0400276301        1.3993323598       -0.1128253412
 C         -1.3343556640        0.7045590276       -0.0162114827
 C         -2.5200087578        1.4218336280       -0.0164530647
 C         -3.7597757211        0.7871122194        0.0089386561
 N         -4.9079680054        1.4541549283        0.0065608180
 C         -6.0812166050        0.8455764848        0.0182819536
 C         -6.1174793030       -0.6049257375        0.0389091139
 N         -4.9768678572       -1.2716116016        0.0384804006
 C         -3.7956807049       -0.6628947802        0.0262603693
 C         -2.5904186909       -1.3588125744        0.0442463943
 C         -1.3683265806       -0.7020547115        0.0396834095
 C         -0.1101125645       -1.4521204528        0.1346785562
 C          0.8597321137       -1.0635261531        1.0606670725
 C          2.0915015508       -1.6737772318        1.0898556013
 C          2.3935561625       -2.6966552984        0.1898217549
 N          3.6896689871       -3.2248648033        0.1623777513
 C          4.7582167579       -2.3273073833        0.2709271693
 C          4.6803545783       -1.0803738420       -0.3514335057
 C          5.7165943275       -0.1766561410       -0.2336971068
 C          6.8434465521       -0.4961740277        0.5064645240
 C          6.9286030408       -1.7345163033        1.1219570211
 C          5.8976690968       -2.6477505085        1.0078261491
 C          3.9014231738       -4.5922827846        0.0034707690
 C          2.9795081685       -5.5100597871        0.5105479575
 C          3.1833830589       -6.8654763592        0.3449250020
 C          4.3076257011       -7.3311794168       -0.3177525465
 C          5.2278609745       -6.4251134513       -0.8197991098
 C          5.0296671932       -5.0670369031       -0.6676396098
 C          1.4032634236       -3.1430745686       -0.6839093497
 C          0.1666904575       -2.5294502024       -0.7034786851
 C         -7.3741508677       -1.2224124515        0.0601304510
 S         -7.6289076650       -2.9448558789        0.0951388002
 C         -9.3411373387       -2.7044510929        0.1085460323
 C         -9.7039537153       -1.4010175851        0.0865955765
 C         -8.5896028051       -0.5226958438        0.0587475063
 C         -8.5541805086        0.8886653740        0.0326456450
 C         -9.6227439116        1.8223382622        0.0221322890
 C         -9.1946915516        3.1057812962       -0.0037305010
 S         -7.4723360003        3.2591522666       -0.0161440325
 C         -7.3047974765        1.5259310400        0.0140489249
 C          0.8562651535        1.0688450928       -1.1287868953
 C          2.1075145147        1.6433097368       -1.1846857901
 C          5.7646359078        3.4543897257       -1.5818958962
 C          6.3214470852        3.9029582977       -2.7632618806
 H          5.9613297371        4.7796036500       -4.6848964614
 H          3.5193478942        4.9276678289       -4.3374301512
 H          2.5187574856        4.1453036957       -2.2368215650
 H          3.6971741563        1.1908334292        1.6364558199
 H          4.9454291743        1.1434441556        3.7561700113
 H          6.4754893962        2.9934674105        4.3363044744
 H          6.7317121455        4.8995679842        2.7882084967
 H          5.4761537918        4.9547497888        0.6742722084
 H          1.8972862657        3.6362522065        1.5380054123
 H         -0.3580287333        2.6439252881        1.5998462385
 H         -2.5051173204        2.4998578637       -0.0644260272
 H         -2.6303733290       -2.4359189415        0.0956755459
 H          0.6371572142       -0.2775973813        1.7653737495
 H          2.8405647743       -1.3600291623        1.8020317019
 H          3.8013318083       -0.8297613021       -0.9261757720
 H          5.6463820532        0.7775294406       -0.7320340886
 H          7.6495531597        0.2150253515        0.6030164897
 H          7.8024122894       -1.9899958162        1.7028347935
 H          5.9618739152       -3.6091177340        1.4960338250
 H          2.1095540875       -5.1502221955        1.0396810447
 H          2.4628461382       -7.5635087792        0.7445038925
 H          4.4653901611       -8.3913669555       -0.4416851960
 H          6.1042542408       -6.7782484051       -1.3428022885
 H          5.7409088962       -4.3637615046       -1.0750000500
 H          1.6216849467       -3.9507904856       -1.3669622235
 H         -0.5808817224       -2.8564557037       -1.4112115942
 H         -9.9804685614       -3.5649725253        0.1318171845
 H        -10.7252504052       -1.0657088430        0.0904519512
 H        -10.6597462943        1.5394452083        0.0322515446
 H         -9.7896494684        3.9977590512       -0.0176736855
 H          0.5660027847        0.3434089883       -1.8739891447
 H          2.7965602943        1.3790344322       -1.9735393538
 H          6.3972731088        3.0387725544       -0.8115856983
 H          7.3896371000        3.8315787009       -2.9061301444
