53
 energy: -89.211262666592 gnorm: 0.000062009236 xtb: 6.7.1 (edcfbbe)
C           -7.37710334189083        2.85274009729597        0.44555440737721
C           -7.99158088500628        1.60095692249542        0.41403819604903
C           -7.25372218847210        0.43321515078293        0.27858354143316
C           -5.88489886189860        0.56273797566044        0.17740562768520
C           -5.24157254053391        1.83791329161399        0.20748799637275
C           -6.00822296307140        2.99445750556967        0.34454891208955
N           -3.88474199829831        1.70963356089148        0.08743389340170
C           -3.68820527474691        0.40918562236952       -0.00878424545145
N           -2.60930737435113       -0.41921845508268       -0.14280613657242
C           -1.29878651054224       -0.02407252654717       -0.20889147071738
C           -0.93096539154025        1.34580404491327       -0.08001833550040
C            0.38251326666283        1.68102880924206       -0.08174475776324
C            1.40593824242903        0.66903870839992       -0.20817555259558
C            2.78879775972043        0.94919288420653       -0.20817639164898
C            3.27883865224878        2.28390916296155       -0.40488324020301
C            4.60861845680694        2.60131019142152       -0.38347391531896
C            5.52351023004839        1.57152117284483       -0.15289951042058
O            6.87595787542650        1.67861869604664       -0.08197585547546
C            7.34907685753084        0.42213212799516        0.16653936632721
C            8.67546164056781        0.06142598581719        0.32232438283020
C            8.94275495602404       -1.27487246951231        0.57486975086661
C            7.92159160451583       -2.21469137569134        0.66720011560116
C            6.59447252406486       -1.85024788249923        0.50995411200430
C            6.30315301927996       -0.51899294369379        0.25666308182716
C            5.08915917590572        0.23534704131437        0.04366474864349
C            3.75493776241068       -0.08199090487810        0.00908212961027
C            0.89045947361835       -0.66164514295231       -0.38931772602453
N           -0.36196186343360       -0.98556573880480       -0.40229271484133
C           -3.11470498779026       -1.72272832964190       -0.18252592937243
C           -2.47039854977077       -2.94406904824907       -0.30321564550556
C           -3.25034069687568       -4.08731285505613       -0.32559054885105
C           -4.63968085567419       -4.02715154609901       -0.22325181682698
C           -5.29968543370788       -2.81661841305270       -0.09606749437484
C           -4.52934354597817       -1.66839243270932       -0.07467731060679
N           -4.85140049035363       -0.33740633472180        0.03582895808177
H           -7.99265234587103        3.73344500285852        0.55301247342480
H           -9.06583379098601        1.53812275009957        0.49701947287419
H           -7.73446254549042       -0.53216618481504        0.25471226852491
H           -5.53160837146293        3.96124559775059        0.36970694556050
H           -1.71150228096536        2.07656744263663        0.05735709970067
H            0.66523736642432        2.71045301162641        0.06599530559604
H            2.56884212485681        3.06921669133896       -0.60551594632889
H            4.95185001399718        3.61166709710186       -0.54182364256467
H            9.46184045332580        0.79578490224768        0.24965296653067
H            9.96705142874641       -1.59082942681050        0.70273836162180
H            8.17005069597055       -3.24636038616440        0.86598555769536
H            5.80387471583005       -2.58092456562940        0.58357560196918
H            3.44124627220418       -1.09711227248255        0.18472505700187
H            1.56470321266111       -1.47684983670077       -0.61320521062885
H           -1.39730786902777       -2.98329697107195       -0.37948082640655
H           -2.77008504581208       -5.04837527903109       -0.42129400550033
H           -5.21280324426363       -4.94104145107045       -0.24104875492517
H           -6.37355994187123       -2.76730193768861       -0.01601941715838
