  53
        -89.17338826
 C         -7.4023727298        2.8220569093        0.2286377796
 C         -8.0107009040        1.5670376140        0.2299075853
 C         -7.2647024733        0.3987640543        0.1676275255
 C         -5.8944108956        0.5310063010        0.1054759263
 C         -5.2569723819        1.8101478410        0.1027368769
 C         -6.0320654391        2.9668111525        0.1661612776
 N         -3.8986317172        1.6841902819        0.0291304014
 C         -3.6927217701        0.3830824938       -0.0080146536
 N         -2.6079993206       -0.4458906570       -0.0832549378
 C         -1.2979182868       -0.0486592117       -0.1315395816
 C         -0.9374703720        1.3196985391        0.0263541594
 C          0.3748648049        1.6574637737        0.0434527930
 C          1.4027663430        0.6556421295       -0.1090216185
 C          2.7827516393        0.9470882087       -0.1333736995
 C          3.2558628313        2.2924676634       -0.2912224498
 C          4.5824363633        2.6223988809       -0.3001246279
 C          5.5138154228        1.5938300042       -0.1470571387
 O          6.8661990726        1.7090649048       -0.1268104744
 C          7.3567462441        0.4500317805        0.0432666083
 C          8.6907208785        0.0921393433        0.1217900435
 C          8.9775773208       -1.2517383516        0.2968330677
 C          7.9681265212       -2.2036931819        0.3900586718
 C          6.6334573803       -1.8430911723        0.3112836337
 C          6.3225852888       -0.5044122544        0.1355670338
 C          5.0963453445        0.2475266628        0.0086233391
 C          3.7644719982       -0.0812251487        0.0113032751
 C          0.8937858734       -0.6753362013       -0.3085991426
 N         -0.3564756084       -1.0022498180       -0.3283206024
 C         -3.1068899087       -1.7505160609       -0.0863826832
 C         -2.4528781947       -2.9704444437       -0.1416580188
 C         -3.2262165313       -4.1180366803       -0.1371707248
 C         -4.6180270231       -4.0619849852       -0.0719787124
 C         -5.2874005821       -2.8520397623       -0.0106825423
 C         -4.5245652570       -1.6989704364       -0.0169096987
 N         -4.8544237654       -0.3682017404        0.0332256177
 H         -8.0256085854        3.7024774541        0.2780741325
 H         -9.0869195656        1.5019968555        0.2801113359
 H         -7.7407026991       -0.5695105316        0.1677837722
 H         -5.5606053745        3.9358282489        0.1652284903
 H         -1.7219042907        2.0435557668        0.1764557295
 H          0.6530080181        2.6828030470        0.2235595702
 H          2.5336806899        3.0791996837       -0.4334289331
 H          4.9104831697        3.6421113974       -0.4255115770
 H          9.4690260648        0.8346940574        0.0472077063
 H         10.0084844781       -1.5655553777        0.3606940084
 H          8.2323684746       -3.2414042089        0.5257085432
 H          5.8516922355       -2.5833270342        0.3843373086
 H          3.4684175957       -1.1069901340        0.1520712057
 H          1.5717100167       -1.4837163470       -0.5445127357
 H         -1.3778903490       -3.0049381140       -0.1893990363
 H         -2.7403170211       -5.0802174519       -0.1806594562
 H         -5.1853835813       -4.9798826507       -0.0657068984
 H         -6.3634233146       -2.8066956358        0.0411949346
