53
 energy: -89.312091987826 gnorm: 0.000028189562 xtb: 6.7.1 (edcfbbe)
C           -6.28850296933684        3.91385254546555        0.42038554678998
C           -7.23298304737063        2.91998830137076        0.16918856668448
C           -6.86074301968623        1.60164407355928       -0.02189361976744
C           -5.51104193413882        1.31115123586440        0.04780131194630
C           -4.53849564867490        2.31642156366450        0.30390495901307
C           -4.93782834418468        3.63253320723579        0.49135561318474
N           -3.26598112508950        1.77632167510062        0.32695804461610
C           -3.45767758798615        0.50715993355958        0.09676106742482
N           -2.66788851331239       -0.60520404271811       -0.01863927882217
C           -1.28572987555199       -0.62528958036434        0.11293145431169
C           -0.58182269596516        0.55267849108727        0.38256762877974
C            0.78797106208099        0.47412364226717        0.51125876951337
C            1.43656227574398       -0.75789917081618        0.37334531062992
C            2.89370283648632       -0.88571680403940        0.50230639112877
C            3.44355711678880       -1.99508080758707        1.15949548893197
C            4.80801925267786       -2.15901810780464        1.30321386494880
C            5.62807785906417       -1.18251887183159        0.76568216234528
O            6.98970134114653       -1.15878180110316        0.79323927867137
C            7.36372968785326       -0.01675374243588        0.14487583145141
C            8.65903473026843        0.41952607055929       -0.06812597885366
C            8.82075723663813        1.61220409351279       -0.75182932003573
C            7.72647687310795        2.34361927653388       -1.20741140457497
C            6.43340608636983        1.90629674987240       -0.99402176424947
C            6.24681036858295        0.71167508969769       -0.31032790187844
C            5.10038136578640       -0.05773904126791        0.10001627486775
C            3.72825814020811        0.09155361028798       -0.02888902649196
C            0.62844249047846       -1.85807804404545        0.09877917996337
N           -0.68478824906109       -1.80025162827834       -0.02751377774085
C           -3.52326828306178       -1.68360238489113       -0.28004322181409
C           -3.25970157393371       -3.02561972161246       -0.48734757766142
C           -4.33706992147571       -3.86455669892846       -0.73017215891756
C           -5.64126605412587       -3.38864879446737       -0.76619401864741
C           -5.91972631949400       -2.04670828143614       -0.56039560638090
C           -4.85106974300288       -1.20478396219453       -0.31893985726606
N           -4.77965308413044        0.15216517920087       -0.08199311033767
H           -6.62439178283635        4.93026064736246        0.56327222062447
H           -8.27848974217733        3.18507241340559        0.12265537838659
H           -7.59379632940219        0.83425398676540       -0.21626348671673
H           -4.20738309443752        4.40177633716081        0.68619631970456
H           -1.11691625982776        1.48209456574654        0.48825337203016
H            1.35801008621604        1.36247218289589        0.73936895046372
H            2.77935068368565       -2.73235594800604        1.58374957922895
H            5.22400122365244       -3.01215245157622        1.81497842136829
H            9.50127137917850       -0.15238000726913        0.28768315948981
H            9.81805997329352        1.98261421224876       -0.93530664732955
H            7.89562021314196        3.26923862702118       -1.73698630830649
H            5.58660765885977        2.47403975530183       -1.34770574314093
H            3.31878978183688        0.94084381975317       -0.55340512646350
H            1.05489499757222       -2.84184567270686       -0.04674261917510
H           -2.24843061242249       -3.39238148759630       -0.45904637283132
H           -4.15336358626608       -4.91490723737794       -0.89526105169085
H           -6.45371472928982       -4.07219630995308       -0.95810624773320
H           -6.92977059445642       -1.67111068617473       -0.58765691966939
