53
 energy: -89.211331332964 gnorm: 0.000104966890 xtb: 6.7.1 (edcfbbe)
C           -7.41181395919365        2.81413859483848        0.24194461489348
C           -8.01590008121433        1.55698024047626        0.25439451269131
C           -7.26635243913292        0.39077692427205        0.19018859037090
C           -5.89651778387551        0.52738799694582        0.11445103349323
C           -5.26377378026532        1.80800787379021        0.09988581108534
C           -6.04206752254406        2.96284031727339        0.16544977042397
N           -3.90325248538069        1.68599801594052        0.01599046955837
C           -3.69530906338222        0.38454750660341       -0.01696865062820
N           -2.60813890925846       -0.43975292564070       -0.09694370010646
C           -1.29938068007234       -0.03741967220203       -0.15707305403807
C           -0.93882139216250        1.33326931517389       -0.01860266835283
C            0.37301241856392        1.67436957709410       -0.00881342317339
C            1.40386301348135        0.67050041394928       -0.14558090083845
C            2.78466030955886        0.95909175142306       -0.15145099225652
C            3.26504159606251        2.30525553631975       -0.29012340587291
C            4.59314128787684        2.62962688120891       -0.28252851760729
C            5.51902935045973        1.59516368218961       -0.13050795155360
O            6.87267233029522        1.70546819301030       -0.09863835626281
C            7.35808750178387        0.43972847349802        0.06457913869298
C            8.69053206693478        0.07722751755531        0.14761527043732
C            8.97109705900206       -1.26980737305163        0.31376874969401
C            7.95673834374179       -2.21810160899142        0.39372865202310
C            6.62348570096963       -1.85172011325354        0.30957695822142
C            6.31889123248904       -0.50999344948989        0.14154634863819
C            5.09572049700740        0.24846437021437        0.00984433363471
C            3.76253349803033       -0.07440849061721       -0.00351206594983
C            0.89396614617908       -0.66119050735015       -0.34044381767384
N           -0.35668503161240       -0.99158382432544       -0.35359476252308
C           -3.10245303321166       -1.74786708821570       -0.09046607996060
C           -2.44566749395246       -2.96718760218714       -0.14482982141614
C           -3.21538177317622       -4.11745874527162       -0.12757512373476
C           -4.60658648676675       -4.06526126726049       -0.05079539424780
C           -5.27898872016524       -2.85630137390547        0.00983362028853
C           -4.51891319660260       -1.70126118295789       -0.00891754924995
N           -4.85331197394151       -0.36937814799040        0.03795150162531
H           -8.03635037445595        3.69353479836842        0.29388869710039
H           -9.09131338882100        1.48872720944283        0.31498440081582
H           -7.73901647888879       -0.57883686193218        0.19906411907176
H           -5.57364092608153        3.93390935110820        0.15608304602112
H           -1.72375733756214        2.05944157252437        0.11855385208934
H            0.64723698450373        2.70421569971321        0.15053632353830
H            2.54850490229958        3.09745473007798       -0.43008255533113
H            4.92679467033373        3.64937084429925       -0.39449411926681
H            9.47143090871919        0.81833935513130        0.08490738168356
H           10.00053021096860       -1.58759679708425        0.38228350319174
H            8.21555299011421       -3.25815402699772        0.52384498943191
H            5.83843377639183       -2.58936281047386        0.37231310381599
H            3.46074219254306       -1.09967097426851        0.12743898545718
H            1.57008064132635       -1.47208876500209       -0.57301412187586
H           -1.37109673911740       -2.99967486090755       -0.20158920925825
H           -2.72549926098070       -5.07749617589502       -0.17019744362363
H           -5.17160229683495       -4.98423000418215       -0.03554117933334
H           -6.35442430121050       -2.81363588221634        0.07017313361177
