105
 energy: -164.667995453624 gnorm: 0.000063661492 xtb: 6.7.1 (edcfbbe)
O          -10.08203082668648        0.72803963218346        1.43222956653617
P           -8.86922334715582        0.74003147210544        0.58642902314268
C           -8.83506198442598       -0.65415998492740       -0.59369895311377
C           -8.53849138106674       -1.91120036651203       -0.08480408450593
C           -8.53970450250776       -3.01458228660798       -0.91812473831597
C           -8.84462386905983       -2.86247063862175       -2.26200733784082
C           -9.16015945772748       -1.61164889255950       -2.76651719228302
C           -9.15892658120032       -0.50566558823702       -1.93314211204662
C           -8.69517571664170        2.26705402717311       -0.38054561454866
C           -9.56841147088691        3.31260129162630       -0.09799034618836
C           -9.43743046965500        4.52319074714099       -0.75188175462877
C           -8.42679901557906        4.69862339056571       -1.68588835154781
C           -7.54871216512304        3.65964530655496       -1.96369237027509
C           -7.67592475143304        2.44786515269576       -1.31342527395685
C           -7.34868109111745        0.59178178395884        1.54594917202297
C           -7.34587013632745        0.92211739553448        2.91702895721812
C           -6.18821145749525        0.86630025845544        3.66770070607893
C           -4.97376261976783        0.48299202703094        3.10933822634593
C           -4.94735425510647        0.15050333267655        1.74807958308755
C           -6.13161070822999        0.22334965708044        0.99350978399729
O           -5.92685970795857       -0.13666438825684       -0.30586693209825
C           -4.60867570296181       -0.45478442644603       -0.41352564343157
C           -3.94993320943044       -0.88977529453784       -1.54641848227955
C           -2.59951366323844       -1.16922128329584       -1.43304882088153
C           -1.90412252563267       -1.00561376875706       -0.21238708653199
C           -0.47566993867704       -1.30791569681188       -0.14560116752196
C            0.06772354443672       -2.38706336786614       -0.85088087282509
C            1.41512413614437       -2.67191120840826       -0.78697893682569
C            2.27720347503227       -1.87403462541607       -0.03914557489906
C            3.74802046459990       -2.20288916640705        0.07256827482402
C            4.62891253017194       -0.97777454847138        0.09949900936558
C            4.32420477732849        0.12409812294900       -0.70372707297892
C            5.15612979819553        1.21846864889501       -0.75250008640931
C            6.33862153385025        1.23782051924374       -0.00180182743130
N            7.18518275308648        2.33901902533814       -0.05250935548113
C            8.55699811300173        2.29396216073862       -0.22078180546306
C            9.38287158742723        1.20147120782859       -0.43258529127799
C           10.74231453979108        1.43907552990123       -0.60831061941362
C           11.25375328123647        2.73352467738390       -0.58464087942487
C           10.42885654804150        3.83419850261666       -0.40491737343126
C            9.06536134397418        3.62175201254394       -0.22969126034839
C            7.94172042495009        4.49322383655623       -0.05803526716245
C            7.80057539656420        5.87430636411885        0.03030582277621
C            6.53361316440673        6.39920372868138        0.23893956693782
C            5.41968223321184        5.57543079335535        0.37431773408305
C            5.53546781977969        4.19187394795101        0.28616555818001
C            6.79326822505736        3.66150955129606        0.04687484613930
C            6.65579158401765        0.13055296823377        0.79408660455088
C            5.81181395558631       -0.95641438186761        0.83936995771346
C            4.27005280131998       -3.08354404648300       -1.05146321566375
C            4.37855534599670       -2.79195260085322       -2.39306263017526
C            4.90517936815229       -3.75540241641231       -3.24512450949437
C            5.32658087160297       -4.98621813733183       -2.75273389674437
C            5.23225785403505       -5.28167079556567       -1.40541800431677
C            4.70075751264963       -4.32593801089824       -0.54648564069781
C            4.47464718554577       -4.35149455017127        0.88000034375112
C            4.71055063097933       -5.34406048961321        1.82488568401787
C            4.39569528087382       -5.09140345303108        3.14751124492177
C            3.84945788663678       -3.87182822006904        3.53060149985679
C            3.60621239017682       -2.87549663676851        2.59161742764115
C            3.92666794301813       -3.11569843763655        1.27442363668007
C            1.73991438207384       -0.80391391812177        0.67623394856203
C            0.39100138109920       -0.52860176124118        0.62861140385316
C           -2.58061885103225       -0.55887795923563        0.91792340081510
C           -3.94012207546846       -0.28886082981775        0.83247315158325
H           -8.30611793939695       -2.00721551894615        0.96919594482554
H           -8.30205732867221       -3.99127344666606       -0.52158999147642
H           -8.84137213901961       -3.72267737966869       -2.91547848984925
H           -9.40695601537677       -1.49525795265985       -3.81202538717022
H           -9.40601312534670        0.47473188495695       -2.31788324731003
H          -10.34958574632175        3.14786764620068        0.63169488740517
H          -10.12203643471899        5.33055162451516       -0.53485739167858
H           -8.32254984540489        5.64425392716817       -2.19718297229432
H           -6.76203443100165        3.79812388874500       -2.69166477243900
H           -6.99962342155208        1.63304258550506       -1.52577556343108
H           -8.28905416293496        1.20319079603923        3.36310818573590
H           -6.22951398763185        1.12190041702136        4.71688009586354
H           -4.07610685766472        0.43480758784415        3.70425547027389
H           -4.47632425048442       -1.00718384251218       -2.48080333172730
H           -2.05465330143377       -1.49027652149991       -2.30649101214559
H           -0.58350354788423       -3.02567863923562       -1.42875063288287
H            1.80719966791490       -3.52154720734243       -1.32664565208878
H            3.42209130831372        0.11586299270215       -1.29700407036974
H            4.92620054407837        2.04922523611558       -1.40210120585666
H            8.99033323423144        0.19766309229870       -0.47918874914055
H           11.40748386559006        0.60542281528591       -0.77195783109776
H           12.31464305720948        2.88293395584104       -0.72211207624680
H           10.83289649072231        4.83456400434775       -0.40691999231243
H            8.66007123917536        6.52079165864589       -0.05526212436985
H            6.40796159445003        7.46965970689787        0.30979753666570
H            4.45079246042718        6.01400605020938        0.55648130437078
H            4.67099139618154        3.55996466978102        0.41637575586928
H            7.54502000695657        0.15326165693893        1.40526170820432
H            6.06144297713009       -1.79767056975784        1.46811961362887
H            4.05464018297771       -1.83867356779493       -2.78364857551148
H            4.98789561435705       -3.54622780806594       -4.30153153813370
H            5.73515492566207       -5.71865709209120       -3.43422741380082
H            5.56378668912979       -6.23679390795561       -1.02587404730026
H            5.12973092202787       -6.29460715133870        1.53002072097944
H            4.57241429388743       -5.85185472721819        3.89474702273729
H            3.60994235680126       -3.69630381839198        4.56908199368572
H            3.17788573545083       -1.93285084546286        2.89796388968858
H            2.39147123305046       -0.17559571291284        1.26615025891582
H            0.00002197372576        0.31935829340264        1.17108102637141
H           -2.06943506380581       -0.45687129183427        1.86262723599395
