105
 energy: -164.778683650699 gnorm: 0.000043139346 xtb: 6.7.1 (edcfbbe)
O           -9.27722323775489       -1.30673583914971       -0.72637574483091
P           -8.92442462351537       -0.03567660785650       -0.06465655049967
C           -8.41801729250165        1.27227205034984       -1.22326239314441
C           -8.86494968179912        1.16521620326155       -2.53261575936474
C           -8.51674974645476        2.12614278388883       -3.46525549161701
C           -7.71979713044221        3.19495270111923       -3.08788661572513
C           -7.27060462875409        3.30161468547131       -1.78069888578956
C           -7.61980606183261        2.34410240045741       -0.84567146263678
C          -10.29024054741802        0.65661915311736        0.91653827283858
C          -11.47731269014825       -0.06091043021147        0.95842788082039
C          -12.55580723734660        0.42411534438479        1.67772279280984
C          -12.44657960872595        1.62863154910377        2.35353230986760
C          -11.26180324931717        2.34848911773269        2.30949112065598
C          -10.18256072029598        1.86672762171952        1.59162164718098
C           -7.52043903234430       -0.21588017813778        1.08245032268014
C           -7.59963843928874       -0.25965424189955        2.46681068878068
C           -6.46833180860360       -0.49561655505187        3.24341530290514
C           -5.22614290711799       -0.70131735780045        2.67062426200023
C           -5.12191565663379       -0.66935912858583        1.28529465855252
C           -6.27506093735947       -0.43184654157520        0.51412894297337
O           -6.01278265066034       -0.42841180969319       -0.81638543816369
C           -4.67211312660374       -0.66856128863918       -0.93546196974450
C           -3.94903483741395       -0.75579241176766       -2.11122109783679
C           -2.59443168026893       -1.00991609560995       -2.00600422653835
C           -1.95932358002940       -1.16698601230041       -0.76685787606539
C           -0.51366392799226       -1.43884435424398       -0.70968768925005
C            0.07625959969299       -2.35777636522341       -1.57319904033340
C            1.43149831049402       -2.62163574649410       -1.50920763575471
C            2.24082760673917       -1.96073071942928       -0.59398250802340
C            3.71514897533259       -2.29146262944067       -0.46803511638176
C            4.56329185522218       -1.07112266564399       -0.17203775019718
C            4.29099509162934        0.13808102187639       -0.80390275950276
C            5.08978138445381        1.24439093673727       -0.59159707459436
C            6.19283676580109        1.15796115433238        0.25227801334238
N            7.00670697310890        2.28141332948558        0.47099330591596
C            7.58543288442705        3.06206909992698       -0.50859264196070
C            7.56192039669463        2.90962634458367       -1.88808725011165
C            8.25359868753079        3.83085435032450       -2.65103302824755
C            8.96087212920333        4.87823046446037       -2.06314005910823
C            9.00687271443780        5.02177820449233       -0.69062999246318
C            8.31988129135531        4.10762274355606        0.09838346547688
C            8.16693379449440        3.94224651123166        1.51694315505035
C            8.62898947978948        4.65090736951618        2.61899017218655
C            8.26929915536512        4.22146390791591        3.88106364448827
C            7.44845592823001        3.10807250942211        4.05229855372180
C            6.97649988030994        2.38677284081085        2.97237813940003
C            7.35165893603866        2.80106054006718        1.70182360289975
C            6.47961399323161       -0.05160142771833        0.87569170213190
C            5.67092166874760       -1.15223730639889        0.66269211921462
C            4.29332262135115       -2.96709268842721       -1.69864415769819
C            4.46272316584517       -2.45068646407349       -2.96577068533478
C            5.03392544051900       -3.25534030769417       -3.94305040182443
C            5.43156403087789       -4.55195974258203       -3.65308191197272
C            5.27048456593766       -5.07414303517312       -2.37957429584022
C            4.70159768984499       -4.27511018218183       -1.40096392679708
C            4.41478306060097       -4.54316657284907       -0.00057484604845
C            4.61504692374736       -5.68057391556214        0.76491235259590
C            4.24139712582196       -5.65789612495239        2.09920448921041
C            3.67513302260435       -4.52168429910650        2.65751371547320
C            3.47173416394214       -3.37940912978686        1.89429317950321
C            3.84912844889510       -3.39307593932129        0.56815829593763
C            1.65363782329303       -1.04427287839298        0.27204348625385
C            0.29784263999307       -0.78835183654727        0.21683780355299
C           -2.69663754591176       -1.06992820565048        0.40722920615677
C           -4.05893920747902       -0.82396645774904        0.32425306989253
H           -9.47331715729952        0.31322975094163       -2.80414432973757
H           -8.86283559172407        2.03935506155509       -4.48492208241646
H           -7.44276990840422        3.94430078992025       -3.81478895859861
H           -6.64278835967123        4.13155914544485       -1.49050849117046
H           -7.25867256946524        2.41709422274667        0.17081705669566
H          -11.53438661384172       -0.99759752329175        0.42135827919415
H          -13.47854560852917       -0.13649210731386        1.71060144220989
H          -13.28676719522696        2.00923555958931        2.91547543561697
H          -11.18053857349068        3.28779409116288        2.83658533138589
H           -9.25761996009342        2.42269417532983        1.55319989635747
H           -8.55747044092243       -0.10431002260098        2.94227096550484
H           -6.56957713297061       -0.51979194996523        4.31803077513476
H           -4.35656324708947       -0.88473718245310        3.28225837365430
H           -4.43256924573922       -0.62972053982901       -3.06697906623753
H           -2.00147505947678       -1.07175933517832       -2.90597477451087
H           -0.53641160805537       -2.89017263770234       -2.28604951800066
H            1.86325294505957       -3.35028215258452       -2.17972713625413
H            3.43327464555783        0.22172698128812       -1.45483633549567
H            4.85697113285415        2.18398015041619       -1.07042629178373
H            7.02939609291096        2.09243315551149       -2.35109663207574
H            8.24893794097593        3.73583415764075       -3.72730923030864
H            9.48668338918216        5.57993330655220       -2.69419728391644
H            9.56768041577842        5.82473772018395       -0.23556156059198
H            9.25350834951967        5.52204109560823        2.48687974951255
H            8.61973042993412        4.75786217511350        4.75083671819989
H            7.17320924565369        2.80400313056285        5.05194188881819
H            6.33005712298868        1.53363981013872        3.11367909050133
H            7.34531017970319       -0.12979351447982        1.51657493364424
H            5.91022942065831       -2.08631599463987        1.14883909165713
H            4.15430209794835       -1.44270633496941       -3.20009226333951
H            5.16991930788589       -2.86592992257758       -4.94166216212487
H            5.87317351241197       -5.16048729432634       -4.42919408952512
H            5.58324582381436       -6.08332804195841       -2.15574268372396
H            5.05258157670396       -6.56795290122540        0.33198521983871
H            4.39062607538669       -6.53565579363860        2.71152938831777
H            3.38773517967175       -4.52498703459830        3.69901301716355
H            3.02950949837255       -2.49905173264320        2.33630557393125
H            2.26550940013988       -0.51734599346448        0.98986501912230
H           -0.13584589028221       -0.06053253740244        0.88712397332324
H           -2.22298005243533       -1.20520337890737        1.36714227893269
