  105
       -164.71018234
 O        -10.0386341103        0.6730849811        1.4887450580
 P         -8.8539771122        0.7474838526        0.6214638818
 C         -8.7470727302       -0.6035839051       -0.5994231115
 C         -8.4425865725       -1.8684246486       -0.1146853569
 C         -8.3674034756       -2.9423807079       -0.9814965918
 C         -8.6038130649       -2.7536283771       -2.3341637456
 C         -8.9253205495       -1.4955105075       -2.8152994272
 C         -8.9991635951       -0.4178589851       -1.9491515525
 C         -8.7176930558        2.3088158842       -0.3012065756
 C         -9.7027721044        3.2633166522       -0.0936453489
 C         -9.6428189714        4.4759760273       -0.7575944758
 C         -8.5952334628        4.7337858791       -1.6263658867
 C         -7.6091130112        3.7807233283       -1.8327488627
 C         -7.6660697040        2.5675578478       -1.1720484037
 C         -7.2939554432        0.6085923479        1.5531736011
 C         -7.2986284855        0.8708974258        2.9156545147
 C         -6.1449565426        0.7625251377        3.6843219898
 C         -4.9445619889        0.3772908716        3.1170516964
 C         -4.9137809767        0.1027829144        1.7555148573
 C         -6.0870463088        0.2291540819        0.9865855699
 O         -5.8709243012       -0.0778680977       -0.3187334055
 C         -4.5562409500       -0.4199681206       -0.4175852864
 C         -3.8908196226       -0.8162356190       -1.5631978969
 C         -2.5482580215       -1.1190347623       -1.4434312005
 C         -1.8698829859       -1.0285243672       -0.2207395114
 C         -0.4360415296       -1.3497308930       -0.1541102171
 C          0.0868288312       -2.4441446643       -0.8371977684
 C          1.4364611881       -2.7351221880       -0.7833856653
 C          2.3058732048       -1.9320602464       -0.0571795413
 C          3.7801009934       -2.2644363538        0.0451940039
 C          4.6504503237       -1.0252454671        0.0502317853
 C          4.3375052246        0.0501155669       -0.7746481938
 C          5.1509340726        1.1641806481       -0.8251426145
 C          6.3001588683        1.2262086706       -0.0427646545
 N          7.1194962526        2.3621978384       -0.0797044827
 C          8.4863438162        2.3672838632       -0.2699392223
 C          9.3478798673        1.3080876135       -0.5176448293
 C         10.6867652550        1.5956112317       -0.7008568019
 C         11.1643900781        2.9034625278       -0.6485998295
 C         10.3084458912        3.9634083105       -0.4261604236
 C          8.9578089057        3.7000388716       -0.2395069211
 C          7.8103686669        4.5333196068       -0.0137873726
 C          7.6374753469        5.9038418858        0.1282495642
 C          6.3668990347        6.3896718317        0.3633240477
 C          5.2786702169        5.5264473069        0.4714673742
 C          5.4253234701        4.1595068032        0.3341279604
 C          6.6964123171        3.6667938348        0.0748109091
 C          6.6245677166        0.1490489071        0.7754138257
 C          5.8108768205       -0.9671597122        0.8111091234
 C          4.2760006570       -3.1726145794       -1.0645006490
 C          4.3665432115       -2.9110240249       -2.4147642358
 C          4.8731791210       -3.8966065973       -3.2513441299
 C          5.2852752134       -5.1184609151       -2.7416910867
 C          5.2028378762       -5.3844543343       -1.3844882989
 C          4.6973652503       -4.4049214211       -0.5457280569
 C          4.4969521224       -4.3944695201        0.8942245227
 C          4.7380152221       -5.3667573760        1.8508080509
 C          4.4476968918       -5.0814522976        3.1750815819
 C          3.9246365699       -3.8494097204        3.5369817325
 C          3.6800606395       -2.8718007330        2.5818680149
 C          3.9725904700       -3.1478791668        1.2635059748
 C          1.7842683828       -0.8484905851        0.6412672131
 C          0.4350842502       -0.5610661881        0.5934325551
 C         -2.5514595217       -0.6282758763        0.9222037970
 C         -3.9008181574       -0.3255432407        0.8254691927
 H         -8.2647335148       -1.9955691479        0.9456235573
 H         -8.1235537830       -3.9254383111       -0.6053932353
 H         -8.5417930898       -3.5911661955       -3.0134680831
 H         -9.1184470242       -1.3526786376       -3.8686231159
 H         -9.2483019190        0.5673855358       -2.3184311412
 H        -10.5079709940        3.0337299520        0.5892180558
 H        -10.4109775580        5.2183992159       -0.5985801316
 H         -8.5458412890        5.6794829539       -2.1459001820
 H         -6.7944154231        3.9854262132       -2.5121761473
 H         -6.9073926080        1.8166197550       -1.3332205436
 H         -8.2379742284        1.1512680010        3.3693524654
 H         -6.1929796368        0.9765423467        4.7413391233
 H         -4.0502222915        0.2839316261        3.7137947142
 H         -4.4063798195       -0.8835077267       -2.5079459708
 H         -1.9966380825       -1.4158305590       -2.3229009962
 H         -0.5738390839       -3.0872165934       -1.4000613679
 H          1.8178845998       -3.5949614845       -1.3143691229
 H          3.4443434968        0.0184139871       -1.3811973599
 H          4.9073918523        1.9871046593       -1.4803844217
 H          8.9844086816        0.2932835405       -0.5777242203
 H         11.3781225653        0.7883072369       -0.8926929733
 H         12.2185930553        3.0860975616       -0.7941616343
 H         10.6757904728        4.9782266492       -0.4015576082
 H          8.4832567835        6.5711770202        0.0596658435
 H          6.2102883525        7.4522206567        0.4744166630
 H          4.2987248004        5.9347623094        0.6703801951
 H          4.5784717349        3.4976651947        0.4361945633
 H          7.5093145104        0.1961503996        1.3922929598
 H          6.0767283006       -1.7974439109        1.4482644319
 H          4.0484353572       -1.9612782164       -2.8184831719
 H          4.9474628572       -3.7081433165       -4.3121878134
 H          5.6765840261       -5.8702763988       -3.4112601527
 H          5.5270245969       -6.3356634810       -0.9895294633
 H          5.1429171054       -6.3277656396        1.5708068736
 H          4.6289802525       -5.8271430451        3.9351675954
 H          3.7039329088       -3.6472876799        4.5746983213
 H          3.2716928876       -1.9148040388        2.8708043159
 H          2.4437211733       -0.2138781419        1.2156038620
 H          0.0539500119        0.2999248872        1.1232637119
 H         -2.0457928207       -0.5739658390        1.8741432632
