105
 energy: -164.669296921115 gnorm: 0.000051397745 xtb: 6.7.1 (edcfbbe)
O           -9.63113521999055        2.29898435576356        1.25507576749605
P           -8.67587311665384        1.44973386841963        0.51317584901110
C           -8.74884473475936       -0.30013109949440        1.03021277098375
C           -9.46085112863753       -1.24735492218719        0.31061330837354
C           -9.52931393606077       -2.55164003277357        0.77027687103685
C           -8.89167670341189       -2.90740617399239        1.94755291429835
C           -8.19542744513215       -1.95630866138997        2.67724289316449
C           -8.12834837660830       -0.65255985051202        2.22095666647269
C           -8.94337795555643        1.48385171363563       -1.28372679208216
C           -8.21688273553284        0.68260318298172       -2.16008887498977
C           -8.43202630943725        0.78670558096639       -3.52117200938794
C           -9.36390668309732        1.68904534638133       -4.01429710611299
C          -10.08336630566690        2.49241956821107       -3.14279031861940
C           -9.87060792962766        2.39254086510458       -1.77999876443922
C           -6.95850447306930        1.94863330765382        0.77525945738183
C           -6.67639294177912        3.22844282200915        1.27107565462374
C           -5.38063738992123        3.65420252315107        1.48440158410895
C           -4.29301810950983        2.82291793479652        1.21617932414320
C           -4.54321448213665        1.54933067916043        0.72345565084623
C           -5.86816186926024        1.13116762940480        0.49658368072688
O           -5.92703573124310       -0.14044050892629        0.02060244875185
C           -4.64519559909246       -0.58495020462329       -0.06345023206618
C           -4.20318903288488       -1.83683402025404       -0.49469126828623
C           -2.85810577829462       -2.07435072528958       -0.50553997358359
C           -1.88168256705477       -1.09296015873490       -0.08147258299965
C           -0.49686428198660       -1.37617918388114       -0.10298732122397
C            0.05228690292633       -2.48273662919378       -0.83283869723810
C            1.38995115902987       -2.74535568195777       -0.85011268569157
C            2.30678929203539       -1.93960013732230       -0.14780960693833
C            3.77048201414781       -2.28297274855342       -0.08788225684196
C            4.66616724562261       -1.06904306718075       -0.01147121809514
C            4.37059164986600        0.06190708648204       -0.76747106736316
C            5.20957060503912        1.15748228614207       -0.76045549069781
C            6.36931467515364        1.14307010586226        0.01117754778237
N            7.22227585428132        2.25500839875332        0.02525335673208
C            8.58502449218740        2.22884387560462       -0.19195354018711
C            9.40935263088891        1.15644204279802       -0.50710331285527
C           10.75380397263772        1.41278462745261       -0.70352872952024
C           11.27023056512147        2.70237578094497       -0.60121113791770
C           10.44981410187611        3.77787722233749       -0.31040783363492
C            9.09759846664535        3.54503139703731       -0.10738889959248
C            7.97759055997515        4.40054208108300        0.18405397164633
C            7.84867913506633        5.76442478544827        0.40124167712940
C            6.59464976175781        6.27316709513603        0.68935185297210
C            5.48345250361706        5.43764566771733        0.77438073460386
C            5.58760853547976        4.07523258330187        0.56269657065113
C            6.83999680527020        3.56172161383104        0.25151745352417
C            6.67427075994880        0.01255849995261        0.76486316644774
C            5.83185846728409       -1.08196538889100        0.74537483573282
C            4.23362816947575       -3.15380953785183       -1.24401380922755
C            4.35723439883835       -2.81813155120870       -2.57442776889666
C            4.81371863923238       -3.78260216291587       -3.46482735629774
C            5.14290773141372       -5.05635847071698       -3.02482133359203
C            5.02670594611482       -5.39735414577271       -1.68709602118183
C            4.56962864632788       -4.43996844451405       -0.79370321469055
C            4.34925500522688       -4.50256423580030        0.63920608691802
C            4.51112770846624       -5.54420392309859        1.53996742214715
C            4.23273118576114       -5.31759919817415        2.87722988556847
C            3.79771831869371       -4.07145343095257        3.31150487579692
C            3.62376513572558       -3.02686402778727        2.41531501730163
C            3.90961986171032       -3.24331789063091        1.08262487784149
C            1.78802743370447       -0.86360912262691        0.60296051070081
C            0.45561283110263       -0.58184760945766        0.61774680172580
C           -2.37620400731739        0.17185638029399        0.36015957860951
C           -3.72125314425232        0.41987273377577        0.36075218081870
H           -9.95530666005302       -0.95885666887139       -0.60741852371198
H          -10.08003213501896       -3.29128853130988        0.20731421888325
H           -8.94108527522298       -3.92705164069287        2.30066524901203
H           -7.70455995205570       -2.23130058730509        3.59970772876538
H           -7.59309279976007        0.10589206674218        2.77949403061796
H           -7.49864884925947       -0.02125548843314       -1.76683304148742
H           -7.87282825815404        0.16146028786930       -4.20231528711832
H           -9.52931844217751        1.76500567303136       -5.07893054615961
H          -10.80950886945052        3.19494488541549       -3.52540654310772
H          -10.42098880058217        3.00346394691563       -1.07752112558178
H           -7.51659114481750        3.86893188535522        1.49971431252399
H           -5.20612687064913        4.64676503864101        1.87234231255734
H           -3.28340621079291        3.15814679534374        1.39232804403627
H           -4.91419264456850       -2.58979167122487       -0.79860400663496
H           -2.51397482979990       -3.05003658116599       -0.80338741094879
H           -0.60253832258126       -3.10337639917489       -1.42253267938277
H            1.76138356285385       -3.58144628327318       -1.42523790919796
H            3.47248819951756        0.08159144736350       -1.36724670042816
H            4.98207234544103        2.02123566668793       -1.36696126827680
H            9.01489053546258        0.15690781183275       -0.60744132832222
H           11.41677908569431        0.59561617097774       -0.94656750898683
H           12.32617586523874        2.86280511570039       -0.76067202192894
H           10.84999077782030        4.77839847154036       -0.24696490271091
H            8.71074156173143        6.41213060660510        0.35089789491471
H            6.47310475995107        7.33253682650259        0.86005807422092
H            4.52003588459817        5.86255771873590        1.01460108828943
H            4.72395175669928        3.43385094033897        0.64788141202352
H            7.56203491202824        0.00344776561060        1.37909951230442
H            6.07738586787287       -1.95261869956210        1.33499770480163
H            4.10351746347212       -1.82874206972688       -2.92472808912717
H            4.91313799548808       -3.53644259734429       -4.51197867423512
H            5.49571822049537       -5.79058288644508       -3.73486480985358
H            5.28505978843240       -6.38948167298310       -1.34773891202825
H            4.84565196761319       -6.51478820854280        1.20455102226373
H            4.35271673488542       -6.11838647202506        3.59264298879496
H            3.58919005859201       -3.91467268128924        4.35979838526586
H            3.27797525491636       -2.06386477654056        2.76025562582837
H            2.46828866664791       -0.25052321305881        1.17711165897183
H            0.10638818839084        0.23458974771309        1.22903453413248
H           -1.69534106875066        0.95271066576047        0.65529665744612
