  85
       -138.71494854
 C         -7.8227353219        3.9244217452       -0.4010964472
 O         -7.0723641516        2.8215207477       -0.8512770627
 C         -5.7737474993        2.7114738048       -0.4675182254
 C         -5.1023673608        1.5800131022       -0.9752490700
 C         -3.7873599251        1.3235345094       -0.6649859790
 C         -3.1200885059        2.2087452979        0.1742420065
 C         -3.7759234385        3.3716774018        0.6608819558
 C         -5.1078942915        3.6177918475        0.3460278310
 C         -2.8081367409        4.0915233752        1.4284481295
 C         -2.8439225197        5.2812140531        2.1465719447
 C         -1.7104816999        5.6804016779        2.8276617739
 C         -0.5525157544        4.9033027298        2.8149972630
 C         -0.4889099461        3.7196036235        2.0999305304
 C         -1.6107960269        3.3272606090        1.3864346478
 N         -1.8161404024        2.1979867959        0.6140380548
 C         -0.8677391063        1.2202056732        0.3382837486
 C         -1.1905710734       -0.1490698794        0.4609762665
 C         -0.2492685052       -1.1156455133        0.2341110843
 N         -0.5832508009       -2.4676472438        0.3750731039
 C          0.0783023080       -3.3845255199        1.1617729772
 C          1.1609661791       -3.1988198452        2.0080168495
 C          1.6274939862       -4.2941952015        2.7097351181
 C          1.0244160121       -5.5435316471        2.5873553001
 C         -0.0721590357       -5.7294160831        1.7652828587
 C         -0.5567261100       -4.6450609166        1.0488302725
 C         -1.6563289296       -4.4636057009        0.1423383374
 C         -2.6207320838       -5.3248593767       -0.3617386921
 C         -3.5514087537       -4.8205501569       -1.2622519493
 O         -4.5509309572       -5.5452872475       -1.8310277906
 C         -4.6683122430       -6.9104166099       -1.5064668527
 C         -3.4989636420       -3.4717846104       -1.6606119103
 C         -2.5482549169       -2.6103604740       -1.1665855958
 C         -1.6303948077       -3.1028948169       -0.2457421854
 C          1.0889311845       -0.7723798369       -0.1761343546
 C          1.9684242912       -1.7366886899       -0.6234472179
 N          2.7021073609       -2.5504167616       -1.0113284925
 C          1.4020244099        0.6310753528       -0.2663117293
 N          2.6909474651        1.0105464073       -0.6609018402
 C          2.9910854638        1.8437619749       -1.7165635797
 C          2.1396852020        2.4735059247       -2.6125666983
 C          2.7071025801        3.2542536978       -3.6030651951
 C          4.0879874263        3.4034198268       -3.7067973796
 C          4.9426898605        2.7609983042       -2.8297273203
 C          4.3975647910        1.9702902432       -1.8284486461
 C          4.9596914722        1.1633166865       -0.7815727501
 C          6.2636616381        0.9044343644       -0.3849285715
 C          6.4667804270        0.0768224544        0.7130639785
 O          7.6844251031       -0.2652064955        1.2093782370
 C          8.8399993580        0.2017962613        0.5540423456
 C          5.3698223697       -0.4634112481        1.4106487786
 C          4.0749658328       -0.2139267833        1.0259296781
 C          3.8662147230        0.5895531426       -0.0903560042
 C          0.4498649907        1.5820391346       -0.0203785503
 H         -8.8177442062        3.7949264588       -0.8233464654
 H         -7.3984805835        4.8693200177       -0.7557854345
 H         -7.8919241034        3.9434269970        0.6913206456
 H         -5.6557564925        0.9203678054       -1.6232914158
 H         -3.2885882374        0.4637121787       -1.0802326635
 H         -5.5900621797        4.5013829333        0.7314417846
 H         -3.7437670435        5.8770118716        2.1728825322
 H         -1.7198029367        6.6023578001        3.3895981194
 H          0.3097685815        5.2274837494        3.3775971824
 H          0.4043154365        3.1144865343        2.1181209140
 H         -2.1756053360       -0.4328725910        0.7974338022
 H          1.6256931027       -2.2323512823        2.1141191730
 H          2.4749694318       -4.1782883397        3.3683490005
 H          1.4178590288       -6.3763833275        3.1503152153
 H         -0.5435882891       -6.6970862174        1.6833215581
 H         -2.6247899553       -6.3581265805       -0.0556868706
 H         -3.7731178973       -7.4697016051       -1.7964129587
 H         -5.5213373482       -7.2749048935       -2.0760561268
 H         -4.8577124343       -7.0536719504       -0.4377979740
 H         -4.2309205257       -3.1350460683       -2.3768185907
 H         -2.5049250061       -1.5860566752       -1.4996046198
 H          1.0697436979        2.3485742777       -2.5471470269
 H          2.0659088751        3.7550051925       -4.3128158152
 H          4.4937516602        4.0234142248       -4.4917369858
 H          6.0128384424        2.8680355257       -2.9227874743
 H          7.0840808630        1.3448694933       -0.9275854436
 H          8.9031332606        1.2945002618        0.5821343239
 H          8.8762346735       -0.1393428018       -0.4853922500
 H          9.6795036207       -0.2216959012        1.1024807474
 H          5.5817459982       -1.0871691507        2.2638202074
 H          3.2483644008       -0.6326950070        1.5747741462
 H          0.7013211421        2.6259356903       -0.1226062833
