108
 energy: -159.422363927312 gnorm: 0.000035735349 xtb: 6.7.1 (edcfbbe)
C           -3.14878407354589        6.68814705897968        1.03750709413573
C           -1.88061988524005        5.83510664044485        1.22242665304737
C           -0.73105784332795        6.70081998446801        1.76968999334279
C           -1.46979876743557        5.27875621828426       -0.12794888159962
C           -1.16836742789022        6.15061476422595       -1.16494150924322
C           -0.79813366937269        5.70095006971679       -2.41905874569927
C           -0.72846348657945        4.34032314890351       -2.65630605052572
C           -1.02111091322319        3.45156885004414       -1.64349162309123
C           -1.38735139413903        3.90407290276033       -0.37251901977638
N           -1.67276147422126        2.98704249973847        0.62555655369952
C           -1.57315535433277        1.60075347598738        0.32978585151495
C           -0.33740814720434        0.97101394860607        0.38668537107195
C           -0.23683229127431       -0.38501475619662        0.09445166800771
C            1.04050333635879       -1.10744766991822        0.17743837759993
C            2.27326347645561       -0.50015929229204       -0.04324048901010
C            3.40645604665097       -1.30958277482527        0.06609141313993
C            4.76655983482884       -0.80793518017764       -0.15353713208988
C            5.84068334888659       -1.48174561131992        0.42750996579396
C            7.13247908352887       -1.03807677714092        0.24386048159113
C            7.39486913162811        0.08562420545927       -0.53916786444112
C            8.77224429987351        0.55500757012009       -0.74244683961790
C            9.67819285914281        0.57594983571207        0.31580579263534
C           10.97353178760128        1.01876222587452        0.12409828401178
C           11.38739353158793        1.44085530928342       -1.12830506436024
C           10.49618092980887        1.42093029817551       -2.18813191302306
C            9.19831057817154        0.98525537468504       -1.99719437208617
C            6.32116212594718        0.74934993405022       -1.13004734931956
C            5.02581846165528        0.31432199583980       -0.93788720124584
N            3.29580438465979       -2.59428067121946        0.39547207113086
C            2.07970313452721       -3.09181247647285        0.58544680911203
C            1.96724682294914       -4.50782532963102        0.94464528768744
C            0.72547029167724       -5.05043448064209        1.27027625411633
C            0.62116891292071       -6.38478913113218        1.61201659830800
C            1.75037513387374       -7.18839566901550        1.63239441943107
C            2.98766470107355       -6.65383645973656        1.30872114912207
C            3.09885381514108       -5.32020005958784        0.96596477368561
N            0.95120780823598       -2.40011361995191        0.47507969984944
C           -1.37853878069275       -1.09620010763642       -0.26085053568242
C           -2.61502464562219       -0.46856764276925       -0.31047003447200
N           -3.77128240431184       -1.20490996533161       -0.66107903640499
C           -4.41416421201729       -0.92479998867906       -1.86034539503086
C           -3.89083070564589        0.04295124100411       -2.72330742583275
C           -4.51938718705901        0.35586635664352       -3.90975903727296
C           -5.68232256662723       -0.30139540454685       -4.26717791681302
C           -6.18207742924300       -1.28492514270677       -3.43478662401736
C           -5.56707980906648       -1.62158581473240       -2.23630149363726
C           -6.14675235601117       -2.74159923085933       -1.39457919381638
C           -7.58395926736348       -2.36619388334150       -0.98959238556484
C           -6.14792192102322       -4.03230751055461       -2.23416419414776
C           -5.33799502618881       -2.97895848696693       -0.13406961483392
C           -5.73129568674600       -3.97898744876969        0.74548846309049
C           -5.05838604207503       -4.22538265064529        1.92703885344919
C           -3.97131979855287       -3.43782523227990        2.25933547212254
C           -3.56049774980623       -2.43737758502407        1.40430206022180
C           -4.21630583598891       -2.20946645225237        0.19055153254554
C           -2.71353388110090        0.88582496101111       -0.00962437035381
C           -2.06156539973857        3.37938049810979        1.89639633584156
C           -2.32906489948701        2.40977099414523        2.86671060993709
C           -2.71802621118034        2.76987158336719        4.13963197870639
C           -2.84291517683429        4.10736786460222        4.46859743386390
C           -2.56928020464394        5.06789434734244        3.51242087270171
C           -2.17672683919969        4.73412813117564        2.22355715387300
H           -3.95669456257752        6.07023055649760        0.64992114752832
H           -2.97241986958906        7.50023742114652        0.33761428555667
H           -3.46894127089083        7.11762434770476        1.98274001460598
H            0.16120669043004        6.09125458943219        1.90084596187609
H           -0.49521433861064        7.51098330079326        1.08515153887683
H           -0.99447161143298        7.13331560620526        2.73093173654966
H           -1.22317222522905        7.21544411815091       -0.99576810377849
H           -0.57024839780489        6.40728908668160       -3.20268146967024
H           -0.44770331652601        3.96699966707412       -3.63004547965086
H           -0.96659162441025        2.39085006395264       -1.83694621260415
H            0.52919609666287        1.54332178169802        0.68111033825374
H            2.34667026608110        0.54543038858700       -0.29008066536021
H            5.63580073090238       -2.35545979152599        1.02649593059445
H            7.95433722749157       -1.57765194915808        0.69140045897262
H            9.35594983749346        0.26338402133440        1.29852144353008
H           11.66355415809530        1.03598572967001        0.95521692795795
H           12.40048835541498        1.78369942440347       -1.27788172955812
H           10.81502130537856        1.74484806328681       -3.16825023320200
H            8.51257924807147        0.95516447306251       -2.83153658689293
H            6.50544739816238        1.62704137156230       -1.73248951885843
H            4.21601245252467        0.84045678221366       -1.42154240403623
H           -0.14384946050109       -4.41156027713454        1.25321285139620
H           -0.34299642471627       -6.80186109620673        1.86409841062382
H            1.66633140664097       -8.23166085922496        1.90025748562144
H            3.86670576880494       -7.28173550267837        1.32387375506583
H            4.05310268602355       -4.88866054488018        0.70720142342571
H           -1.29118408113185       -2.14701493849856       -0.48904739399997
H           -2.97568564340105        0.55301156325838       -2.46651942615749
H           -4.09578539941686        1.11229897294336       -4.55346827650989
H           -6.18882152359167       -0.06130407882614       -5.18946217754548
H           -7.07910004818089       -1.80543836710504       -3.73436227816392
H           -8.20408020027173       -2.20152156542156       -1.86643334622577
H           -7.57468653255777       -1.45203309714299       -0.39878762570601
H           -8.03820485056623       -3.15368377294256       -0.39464233765301
H           -6.57115937886089       -4.86082399319001       -1.67318763683097
H           -6.73028699281900       -3.90517202741310       -3.14244781932509
H           -5.12850646952030       -4.29189995168437       -2.51376886104675
H           -6.59104989875627       -4.58653295949695        0.50660550087823
H           -5.38763144928290       -5.01511198907069        2.58496583756205
H           -3.44125169731424       -3.59678885532164        3.18660268974767
H           -2.71969243382331       -1.82281590784645        1.68498833443480
H           -3.67207598699644        1.38217705312741       -0.03953899640002
H           -2.22784252954923        1.36428883892942        2.61830839069741
H           -2.92138217945196        2.00337528640547        4.87248075250463
H           -3.14710671536635        4.40242503719683        5.46122886937977
H           -2.66551643295787        6.10797203805165        3.78534993848150
