108
 energy: -159.354742572498 gnorm: 0.000052657031 xtb: 6.7.1 (edcfbbe)
C           -3.13620236907906        6.67103392221933        1.13025537883499
C           -1.83099898051505        5.85403625309891        1.10418495208936
C           -0.62862218823052        6.76158173473834        1.42435204315649
C           -1.64728548330104        5.27744092123735       -0.28559962643462
C           -1.55875301035414        6.12968914620762       -1.37740298693483
C           -1.39327934910994        5.65566634839816       -2.66585109853312
C           -1.31263949621493        4.29046309968394       -2.88327552649103
C           -1.39545750933750        3.42093443471778       -1.81836444544815
C           -1.56113487845792        3.89753666615211       -0.51243491412971
N           -1.63673418942370        3.00088427564295        0.53404031980077
C           -1.55468822853039        1.60462704405978        0.25388672413127
C           -0.32250051733191        0.99034859168155        0.21177850715057
C           -0.21266774465765       -0.38908197164366       -0.06141744313135
C            1.03440369137141       -1.08352610429550       -0.12115506530069
C            2.29576817077723       -0.47305607088439       -0.00815604051069
C            3.42681867551921       -1.26397041141300       -0.09530942031186
C            4.78365593997302       -0.76589306904334       -0.00562670360976
C            5.84644880523718       -1.68181177760615        0.01250253311234
C            7.15152153983211       -1.25884132088164        0.09581806136748
C            7.46440317328992        0.10116738029427        0.15425879368368
C            8.85600282541390        0.55456893928776        0.23340478637276
C            9.78825309815968       -0.13487880990781        1.00851177602464
C           11.09983169199265        0.29331992731894        1.08280745596618
C           11.50858479672093        1.41551068753944        0.38126316849313
C           10.59323378168355        2.10800959059652       -0.39401456349685
C            9.28007369840240        1.68424968943139       -0.46605049456731
C            6.40941007003972        1.01588318554456        0.13103934151091
C            5.10048277703639        0.59709321386933        0.05753281523151
N            3.28000229832555       -2.60924309933524       -0.27343920009318
C            2.08079566389708       -3.15180557885690       -0.37477634857946
C            1.97363295914953       -4.59934913524625       -0.56476324516240
C            0.72548097188519       -5.21692766591094       -0.57929156472456
C            0.62837303978724       -6.58333729433376       -0.75609953805445
C            1.77386858808666       -7.34635805906319       -0.92041294914228
C            3.01895720188849       -6.73785261706476       -0.90741096765151
C            3.12058945393127       -5.37157305862318       -0.73032596003232
N            0.98699898141461       -2.43481295980304       -0.30967681034650
C           -1.41224967325959       -1.10216366944138       -0.28471330776759
C           -2.63300343461964       -0.47186723721712       -0.24053706218662
N           -3.82597403306785       -1.21790049440774       -0.47602183337413
C           -4.34115313775647       -1.26459719072353       -1.75514334985556
C           -3.67673876866119       -0.59714396350495       -2.79123394715998
C           -4.16741741021930       -0.62238812372474       -4.07777052087254
C           -5.33172110707076       -1.31803556439628       -4.35764361634844
C           -5.98742087972255       -1.98317254870165       -3.33794589720043
C           -5.51762149860644       -1.97361728037391       -2.03206460857616
C           -6.27518724625385       -2.72551180847106       -0.95594172163331
C           -7.70412638778603       -2.15768516793553       -0.86883583360741
C           -6.31738648448591       -4.21738326290958       -1.33604968069813
C           -5.61530651308690       -2.58947817010390        0.40178399627464
C           -6.18219378934735       -3.20877166332586        1.50689589061112
C           -5.62245905386619       -3.11362685013352        2.76776105994256
C           -4.46097371745238       -2.38001006184437        2.94296625203867
C           -3.87502710810556       -1.75640384488631        1.86389941813737
C           -4.43770272667113       -1.85253430828639        0.58540323385367
C           -2.73287346516635        0.89377768712415        0.02945275965196
C           -1.81452975740322        3.41023542314287        1.84008652333354
C           -1.89084749674573        2.45253902536370        2.85840245064795
C           -2.06773795660985        2.82920068960783        4.17133375632946
C           -2.16968718280235        4.17168714473978        4.49519442289870
C           -2.09066927651400        5.12036396535251        3.49223431170016
C           -1.91463427765524        4.77039686297970        2.16080162789785
H           -3.98200538689953        6.02495657690420        0.90251076526357
H           -3.10782505335393        7.47075753891037        0.39558831570659
H           -3.29675736723583        7.11418042679933        2.10899619374573
H            0.29044017995326        6.17889043388803        1.40571161780332
H           -0.54220997910333        7.56194861548412        0.69482852943536
H           -0.73163267176024        7.20785805914052        2.40947167792084
H           -1.61989796152417        7.19657255056913       -1.22493657674915
H           -1.32819448162435        6.34676583334946       -3.49217717646924
H           -1.18437065957958        3.90228142231951       -3.88242679146098
H           -1.32951639068035        2.35790752818295       -1.98887317811771
H            0.55458928249432        1.58908300583167        0.39901343840128
H            2.37635225392203        0.58973328725193        0.14107469114847
H            5.61523519600284       -2.73485958491209       -0.03972507898607
H            7.94958611416419       -1.98745120484266        0.09018275781798
H            9.47357006698513       -1.00015243162158        1.57385984535511
H           11.80787299256506       -0.24902135415736        1.69317223457824
H           12.53462070505380        1.74831565081349        0.43813282824851
H           10.90661742129581        2.98154394804717       -0.94790844764383
H            8.57746069332892        2.21896852493429       -1.08880654407449
H            6.62424480846751        2.07324551401689        0.19433897180007
H            4.31871717884525        1.34135254434128        0.04272230549578
H           -0.15738299934790       -4.61037148044998       -0.44685266559287
H           -0.34193199484773       -7.05846741265330       -0.76549992279624
H            1.69602841072049       -8.41497807790858       -1.05836344851113
H            3.91131149992359       -7.33298153671920       -1.03605265156125
H            4.08275893058025       -4.88295862835387       -0.72018297595977
H           -1.35512519033662       -2.15774151950126       -0.49731793118454
H           -2.76648069716005       -0.06036605838078       -2.57601206597968
H           -3.64033901613548       -0.10040856429391       -4.86205600586476
H           -5.72558215537067       -1.34527733819571       -5.36204498944703
H           -6.89118598105136       -2.52436878058309       -3.57366065489428
H           -8.21701561887760       -2.25022724607727       -1.82196601684657
H           -7.66796505278534       -1.10388989808576       -0.59890457740428
H           -8.28566395810125       -2.68441091747996       -0.11753818915602
H           -6.86543582320040       -4.79087148858669       -0.59373098120739
H           -6.79916023082453       -4.35804920350700       -2.29957197961220
H           -5.30504934088820       -4.61226503934447       -1.39714006075280
H           -7.08767159231833       -3.78416481295910        1.38734495924533
H           -6.08978629262323       -3.60794319908929        3.60559031955627
H           -4.01071237809736       -2.29410725960749        3.92034101512378
H           -2.96846225867838       -1.18849296093708        2.00095062352394
H           -3.69189559933023        1.38525321561510        0.06382820963150
H           -1.80676386581618        1.40677583353937        2.60817503386380
H           -2.12473863529309        2.07481811259515        4.94143598984867
H           -2.30778929840890        4.47891451773007        5.52047796047847
H           -2.16868325366884        6.16270036325777        3.76181256487434
