53
 energy: -85.888240502245 gnorm: 0.000048301058 xtb: 6.7.1 (edcfbbe)
C            8.82145763541316       -0.84039678050853        0.38979707022115
C            8.23288252651774       -0.06531079944662       -0.59743572162941
C            6.85923136716227        0.01242700151431       -0.69687981299715
C            6.03353932880547       -0.68924402551867        0.19153878757007
C            4.59068863115403       -0.60284808642344        0.10547246371146
C            3.75322810259304       -1.69830931361297        0.48407423487813
C            2.39495660476585       -1.61438374049488        0.48918336998807
C            1.67776291965545       -0.44240600863495        0.11652039166864
C            0.25667643217646       -0.38114268997487        0.09259121298994
C           -0.42666539208157        0.68633696825409       -0.54263494092170
C           -1.79217230683281        0.77075062952823       -0.54460233958855
C           -2.57031282976576       -0.21895231485759        0.07249506624208
N           -3.95892546046888       -0.14085908002386        0.06114718689052
C           -4.82552704102042       -1.17166281482899       -0.25041792029918
C           -4.54635552337354       -2.46540576128482       -0.66911397048039
C           -5.61424190881719       -3.29809146261786       -0.94821185748245
C           -6.92975558648700       -2.85793998334709       -0.82892845051509
C           -7.21366014278343       -1.56031013084095       -0.44433962131071
C           -6.15856884572985       -0.70763533650126       -0.15793952463273
C           -6.08322251947006        0.67492987612369        0.23243226984184
C           -7.04005813535508        1.64260347505470        0.49825533556188
C           -6.61758937168942        2.90018314597169        0.88844601696410
C           -5.26299340810822        3.18801440148097        1.03327673342564
C           -4.29123945942664        2.23883808243548        0.77552481293167
C           -4.70830712554466        0.98426107924066        0.35218216796705
C           -1.91882319589308       -1.29253706599044        0.69559367513098
C           -0.55234169307964       -1.37204125002044        0.70534368746844
C            2.50247901466247        0.66893167755889       -0.26856958758619
N            2.10297810678799        1.90187914307802       -0.55944165632182
N            3.01007621939202        2.73290568330410       -0.89136432275751
S            4.54961729130808        2.09519676210487       -0.77505093709305
C            3.92032664187517        0.54430705502065       -0.30088594921695
C            6.64517493765434       -1.47754867363725        1.17701968699194
C            8.01838502110046       -1.54581933661354        1.27479510801049
H            9.89671632198017       -0.89788851069085        0.46780279346019
H            8.85061131374808        0.47675806037045       -1.29828524553284
H            6.41647607262544        0.58745869800664       -1.49635082679632
H            4.22840516662851       -2.63077670347575        0.74597595787602
H            1.83569839103591       -2.49855264108359        0.75126184255532
H            0.15472338559464        1.44169110577956       -1.04818193298728
H           -2.28435224230467        1.57768143965538       -1.06679856268400
H           -3.53070746644814       -2.80902257299738       -0.79042028150603
H           -5.42286722453762       -4.31027098023714       -1.27179460727964
H           -7.73691225187300       -3.53880273668300       -1.05361002577246
H           -8.23318475496506       -1.21316417879230       -0.37355221398821
H           -8.09087558634834        1.41347807097025        0.40716793546915
H           -7.34625372532592        3.66912706873407        1.09659084925730
H           -4.96371390727233        4.17286856014407        1.35891552153444
H           -3.24572822405349        2.46628936111012        0.91388489506369
H           -2.50796809916983       -2.03573830355099        1.21291314003646
H           -0.09199553282730       -2.18639806022698        1.24133719311560
H            6.03271398040774       -2.00616733152725        1.89202504196242
H            8.47071337565108       -2.14765423271981        2.04971631435379
