  53
        -85.96119901
 C          8.8143996515       -0.9256712772       -0.0644434192
 C          8.1838153005       -0.0837038430        0.8361722943
 C          6.8058128776        0.0235447943        0.8402254081
 C          6.0370308538       -0.7171697197       -0.0542510821
 C          4.5728491362       -0.6137492595       -0.0539268793
 C          3.7603350449       -1.7313488501       -0.1884507432
 C          2.3717217377       -1.6491453126       -0.1871616770
 C          1.6982932021       -0.4439816129       -0.0569643557
 C          0.2383715273       -0.3621601077       -0.0517899913
 C         -0.5256294460       -1.2320621110       -0.8310512351
 C         -1.9027753077       -1.1608925313       -0.8288720052
 C         -2.5548450741       -0.2226004886       -0.0317220514
 N         -3.9512352076       -0.1509142662       -0.0219783629
 C         -4.8157398481       -1.2153208702        0.1469431452
 C         -4.5358165975       -2.5530835096        0.3857865425
 C         -5.6021886187       -3.4167005596        0.5488455209
 C         -6.9189884391       -2.9668317347        0.4866201294
 C         -7.2035505288       -1.6325816072        0.2751188387
 C         -6.1485829917       -0.7454932253        0.1081623499
 C         -6.0756090522        0.6736750438       -0.1008838284
 C         -7.0346299147        1.6677637128       -0.2435819206
 C         -6.6150113585        2.9644169228       -0.4632465693
 C         -5.2596092300        3.2721683639       -0.5573296943
 C         -4.2868450429        2.3005992735       -0.4186819532
 C         -4.7021509403        1.0000275357       -0.1713966703
 C         -1.7993391097        0.6469356251        0.7520329169
 C         -0.4223780670        0.5818807355        0.7348056153
 C          2.4992619392        0.7069431734        0.0743161935
 N          2.0781357617        1.9913614804        0.1730830544
 N          2.9816694349        2.8424276434        0.2481534608
 S          4.5353984700        2.2176906097        0.2121410421
 C          3.9142517618        0.6093002125        0.0784763850
 C          6.6799524976       -1.5666424131       -0.9521174699
 C          8.0584349950       -1.6656673399       -0.9584782934
 H          9.8912076292       -1.0052467942       -0.0693419545
 H          8.7672435977        0.4922471343        1.5391540362
 H          6.3212500336        0.6695612562        1.5578197504
 H          4.2256399580       -2.7022074000       -0.2728688710
 H          1.8019021729       -2.5627165200       -0.2651367638
 H         -0.0350372630       -1.9469462793       -1.4749269804
 H         -2.4825297920       -1.8167132476       -1.4611242765
 H         -3.5190176754       -2.9092301008        0.4554954421
 H         -5.4098609441       -4.4635318339        0.7328581850
 H         -7.7247987738       -3.6736570127        0.6176794646
 H         -8.2235539775       -1.2801512688        0.2456331722
 H         -8.0852194399        1.4254129518       -0.1882084624
 H         -7.3442074534        3.7530740368       -0.5747051171
 H         -4.9616014671        4.2927225282       -0.7470872870
 H         -3.2402327888        2.5473627862       -0.5128556517
 H         -2.3006931341        1.3620078814        1.3864965201
 H          0.1521136065        1.2594584480        1.3457958156
 H          6.0947765646       -2.1316508273       -1.6630851071
 H          8.5453893262       -2.3208926274       -1.6657870891
