53
 energy: -85.961235681394 gnorm: 0.000086086359 xtb: 6.7.1 (edcfbbe)
C            8.81367479314616       -0.93383236674860       -0.10376757962755
C            8.19726269571174       -0.08358313910901        0.79879571113686
C            6.81961017829716        0.02572923097871        0.82221864567839
C            6.03685766440826       -0.72063029709999       -0.05523492816495
C            4.57305320676002       -0.61433613910814       -0.03802353706575
C            3.75745038999110       -1.73094835438535       -0.16278048202226
C            2.36915993879429       -1.64592939054990       -0.15507564136805
C            1.69858121206924       -0.43883525374244       -0.02754679341192
C            0.23879065120015       -0.35503884577144       -0.02610102273925
C           -0.52210137424032       -1.22690171478076       -0.80632226325623
C           -1.89907411711597       -1.15571378060344       -0.81014962788254
C           -2.55457692406956       -0.21552191425280       -0.01800942224659
N           -3.95104727759610       -0.14602859602091       -0.01450000890321
C           -4.81366304606897       -1.21316465396348        0.14712654382848
C           -4.53175361020827       -2.54981149675685        0.39006948623213
C           -5.59681273130333       -3.41675736336784        0.54371443557457
C           -6.91445436367055       -2.97130471554012        0.46857202487015
C           -7.20126731128398       -1.63812647472724        0.25334103822232
C           -6.14759230502431       -0.74779120123666        0.09565005729751
C           -6.07729076612312        0.67139396257795       -0.11411934575288
C           -7.03845800373524        1.66187926152260       -0.26689174789210
C           -6.62138086502342        2.95980995663286       -0.48382983169035
C           -5.26623438290878        3.27214833729926       -0.56550657366558
C           -4.29137229010498        2.30412626425177       -0.41685171170819
C           -4.70431372659966        1.00231743262860       -0.17216070119480
C           -1.80226775495166        0.65665257716392        0.76587457118426
C           -0.42508943191392        0.59180856717777        0.75434792911129
C            2.50243753218013        0.71044258290247        0.10002306291336
N            2.08422633504444        1.99572420987798        0.19998855932260
N            2.98961673973739        2.84514822862020        0.27063883266806
S            4.54204587456796        2.21747187005204        0.22670943590799
C            3.91735633680201        0.61005682920732        0.09725593866585
C            6.66578664929979       -1.57851157972456       -0.95524892827241
C            8.04377822933769       -1.68017452500922       -0.98046996488667
H            9.89017581304514       -1.01482821544008       -0.12400588797408
H            8.79162337138733        0.49681369436837        1.48879238717788
H            6.34663071728213        0.67758365877238        1.54222542743225
H            4.22011324968348       -2.70315729656568       -0.24610579843489
H            1.79719285655690       -2.55854728403697       -0.22826707481434
H           -0.02889226636223       -1.94337438205770       -1.44637843577178
H           -2.47604096731144       -1.81297726552794       -1.44341630444450
H           -3.51458581927253       -2.90266864632253        0.47043193873960
H           -5.40279813882996       -4.46281962258948        0.73034883725926
H           -7.71917146650191       -3.68088573398528        0.59123693750572
H           -8.22205855743178       -1.28909759030435        0.21282751756466
H           -8.08864376602945        1.41574998446151       -0.22125392579915
H           -7.35227332121582        3.74581949675108       -0.60260756250038
H           -4.96997833819615        4.29364816009893       -0.75295180951513
H           -3.24487024939758        2.55471364387487       -0.50153018493336
H           -2.30613542394109        1.37368058846682        1.39612230554244
H            0.14701707545983        1.27139899850988        1.36535442632315
H            6.06980099436984       -2.14857823335120       -1.65307585924670
H            8.51945469903200       -2.34224950064405       -1.68904700146648
