78
 energy: -128.433263643993 gnorm: 0.000056409229 xtb: 6.7.1 (edcfbbe)
C           10.02650646171152       -2.53555777449149        2.65582082361226
C            8.65364078628229       -2.60765116383140        2.53272034894037
C            7.98324352610149       -1.77373623839288        1.65022787013344
C            8.67581066732349       -0.84557015169578        0.88207360481109
C           10.07207124144719       -0.80002922596280        0.99472407658791
C           10.73582285625936       -1.63264946064566        1.87618452787948
O           10.84670171777205        0.04901985831122        0.23702936307901
C           10.19595722404473        0.87375532037740       -0.65221928811726
C           10.98175443322894        1.72724292315909       -1.40387933009266
C           10.39723521820484        2.60855148962691       -2.30276049377996
C            9.02320329271849        2.63708196418381       -2.43012044055537
C            8.23089597201455        1.78174109610298       -1.67898794724255
C            8.80154772361133        0.87460144196458       -0.79423693963762
N            8.03243829469178        0.00341386801478       -0.02056799968792
C            6.62525023961309       -0.01783616742358       -0.14945733393436
C            6.03778062650743       -0.44102245410847       -1.33806595714228
C            4.66356534117163       -0.45555664120995       -1.47047520474678
C            3.84327884127837       -0.04691822349734       -0.41841403939275
C            2.37868290047577       -0.04408090466360       -0.51696693349980
C            1.71414281867527       -0.01355561509229       -1.77064262007843
C            0.34982342809563       -0.01495128074325       -1.81496832414868
C           -0.37623118636341       -0.03910401498791       -0.60245601119543
N           -1.71737331686541       -0.04395983327752       -0.62030282584153
C           -2.37885947850327       -0.04745618439068        0.51884357891786
C           -3.84344009845290       -0.04871916626211        0.41980812345705
C           -4.66460828536506       -0.46349106649955        1.46878423988842
C           -6.03874379394564       -0.44744128195357        1.33561465103761
C           -6.62527451906820       -0.01676250715519        0.14924802110903
N           -8.03239426209537        0.00537759660541        0.01938048598398
C           -8.67524042276317       -0.83953330776559       -0.88742824384760
C           -7.98207652241990       -1.76317304964985       -1.66048181425899
C           -8.65200762723384       -2.59332584519087       -2.54686857749009
C          -10.02497628319156       -2.52185727837970       -2.66916077698265
C          -10.73483897008451       -1.62337952422939       -1.88491064680284
C          -10.07156095418695       -0.79450162936113       -0.99958304028572
O          -10.84669703156102        0.05035809449345       -0.23771626172087
C          -10.19641549104253        0.87120403936245        0.65547009530671
C          -10.98264481804141        1.72047323594634        1.41143339317731
C          -10.39854750953010        2.59766497987502        2.31461581218423
C           -9.02452223218732        2.62635846792635        2.44203995987867
C           -8.23177613865792        1.77525478290901        1.68657100769667
C           -8.80199959167812        0.87221447413162        0.79737153053549
C           -5.81392279523053        0.38754861799451       -0.90821971989585
C           -4.44228719024069        0.36834181963055       -0.77148590820381
C           -1.71430748109103       -0.02884665900988        1.77274197603459
C           -0.34996952731254       -0.03157837333742        1.81708092683765
C            0.37616594462958       -0.04493506300350        0.60445423726710
N            1.71734010018301       -0.05070610811476        0.62223406931643
C            4.44298783853177        0.36223687608037        0.77516264869057
C            5.81473106512778        0.38010267795433        0.91108278079878
H           10.55351255737386       -3.17927003361414        3.34246133173789
H            8.08914005070118       -3.31590114695775        3.11968836935707
H            6.91171195188616       -1.84957239820980        1.55310289354559
H           11.81074861750069       -1.56166748470853        1.93497216219124
H           12.05128304742309        1.69053089626541       -1.26705669559547
H           11.01919870346644        3.26909606242513       -2.88618533670776
H            8.55230148514623        3.32835392113343       -3.11225862059642
H            7.15758165019367        1.82409721388295       -1.77641905372138
H            6.66671511452971       -0.76468720538896       -2.15443944076874
H            4.23455907885458       -0.81714389282929       -2.39200948518909
H            2.28685015923179        0.03267536757217       -2.68310631759539
H           -0.19415686001065        0.00992066373250       -2.74750425160771
H           -4.23646570040331       -0.83101075960293        2.38836113726615
H           -6.66834214728896       -0.77568866765217        2.14965352163588
H           -6.91044108606097       -1.83848873381462       -1.56410307747868
H           -8.08704862751448       -3.29810884892563       -3.13756241300130
H          -10.55163909823625       -3.16267631631172       -3.35876451783193
H          -11.80983756815654       -1.55300329812744       -1.94309370568553
H          -12.05217055178504        1.68378354274903        1.27457496007784
H          -11.02085960114253        3.25488984105288        2.90140893370281
H           -8.55397712416327        3.31446391532120        3.12761772697408
H           -7.15847318005446        1.81762229569269        1.78414976760655
H           -6.26802942171593        0.71948164531214       -1.83027911021973
H           -3.80511669034977        0.68444516951963       -1.58223993085096
H           -2.28690539879854        0.00930297811329        2.68564146740108
H            0.19394517514484       -0.01569884410326        2.74985090418362
H            3.80646473687305        0.67351295522061        1.58829115142967
H            6.26958969473157        0.70607973190462        1.83490315516046
