78
 energy: -128.433287969597 gnorm: 0.000068417411 xtb: 6.7.1 (edcfbbe)
C            9.99233740612799       -2.82035367207544       -2.39013890281597
C            8.61778298201961       -2.70775203942013       -2.44512309816252
C            7.95814829465529       -1.77263514447791       -1.66151575378880
C            8.66340879911941       -0.93920090845799       -0.80165930638457
C           10.06090950971509       -1.04267088905867       -0.77501744960391
C           10.71386306905757       -1.97747575642583       -1.55643671392930
O           10.84744801737554       -0.22401551332464        0.00354349467026
C           10.20747562825001        0.71417195572994        0.78099660750937
C           11.00502539021621        1.52353816576687        1.56822655533794
C           10.43216119904088        2.47453966296185        2.40110232391902
C            9.05811650295430        2.59597771311351        2.44915921812635
C            8.25412372136020        1.78720166377587        1.65989411012661
C            8.81253170702785        0.84905490821865        0.80002666988043
N            8.03131124945788        0.01728037546962       -0.00444613550564
C            6.62374229980672        0.14288510378876       -0.01134034359360
C            6.02746257924200        1.30278998635271       -0.49758825210050
C            4.65291029296196        1.43225867555626       -0.49823390119507
C            3.84226403519464        0.40427929611252       -0.01640801181427
C            2.37780399141013        0.50271935102986       -0.00454865037587
C            1.71798205632515        1.75859468365201        0.02714463863139
C            0.35379485888741        1.80646112994590        0.03305522157524
C           -0.37491635119355        0.59549251577776        0.00913675996794
N           -1.71634329910650        0.61709488631717        0.00304686721798
C           -2.37934133483974       -0.52062556385829       -0.01055228978768
C           -3.84372010761261       -0.42040594147785       -0.02103342151017
C           -4.65676440111847       -1.44330522291587       -0.50958273124350
C           -6.03109272565318       -1.31058289753999       -0.50838062510276
C           -6.62463930697807       -0.15229789033361       -0.01515392877444
N           -8.03186978098671       -0.02226230143616       -0.00901573859565
C           -8.65924686714617        0.94461398488412       -0.79730196608865
C           -7.95039190476792        1.77830412207516       -1.65395533283982
C           -8.60534703868290        2.72404954961175       -2.42867316923607
C           -9.97875436548047        2.84719670911906       -2.36789143992226
C          -10.70402906030013        2.00427901271134       -1.53747335523327
C          -10.05578456277027        1.05876617800151       -0.76508223102453
O          -10.84595366877061        0.24057153998073        0.01028781019259
C          -10.21020046512684       -0.70428552899116        0.78316127912259
C          -11.01088455062121       -1.50914837665447        1.57179534826643
C          -10.44215173870768       -2.46670475027012        2.39998231843391
C           -9.06896760226229       -2.59953655628347        2.44165805188258
C           -8.26181027109063       -1.79516548359949        1.65110595934202
C           -8.81628870671155       -0.85007307037575        0.79635805140176
C           -5.82051052353709        0.87786817795603        0.46670508445739
C           -4.44840084991949        0.74361955993225        0.45835241331530
C           -1.71953675891629       -1.77679757937738        0.00420462180774
C           -0.35528517371188       -1.82481327392823        0.00874498900202
C            0.37369800496063       -0.61380545479682        0.00090359785832
N            1.71523055329925       -0.63526619325593       -0.00576843526336
C            4.44943233041256       -0.76171172085884        0.45475453425445
C            5.82195615944766       -0.89261524857835        0.46292196219065
H           10.51098325019371       -3.54809225299469       -2.99426322997275
H            8.04339925656845       -3.34454809252397       -3.10044427289481
H            6.88491175437774       -1.68559974476437       -1.72408760379833
H           11.79019607344181       -2.02690085570855       -1.50150832501609
H           12.07448339576825        1.39021414102535        1.51886985653631
H           11.06324210761924        3.10302562926298        3.00961127046441
H            8.59641010152284        3.31901465179612        3.10410145634324
H            7.18127757233213        1.88173259827417        1.71729009373167
H            6.64946989276331        2.09849072918863       -0.88068549391893
H            4.21351794367606        2.32871775774757       -0.90776398225100
H            2.29585950997054        2.66815962911970        0.07018861346120
H           -0.18823604263384        2.74003534617519        0.06077292498861
H           -4.21962988879964       -2.33822541903864       -0.92483179091119
H           -6.65488486601521       -2.10227132853465       -0.89685132158342
H           -6.87808510648373        1.68326106439929       -1.72086962639881
H           -8.02826452897101        3.36082070891849       -3.08165138581732
H          -10.49370100315502        3.58338767120225       -2.96489820487078
H          -11.77971964262252        2.06197513517227       -1.47823945635184
H          -12.07944155195224       -1.36719017404227        1.52726009602838
H          -11.07570629495424       -3.09147097717710        3.00975053427426
H           -8.61035821832716       -3.32806340787396        3.09267961804685
H           -7.18952434944738       -1.89858437464251        1.70348114805503
H           -6.28039752788405        1.77709003607143        0.84932543489422
H           -3.81706110751044        1.53419517751193        0.83222589192217
H           -2.29719877266361       -2.68697518280147        0.03526616758838
H            0.18656502861688       -2.75878844347514        0.02357241066624
H            3.81984096936181       -1.55646563856623        0.82271653652647
H            6.28385614938545       -1.79328338535474        0.83965822757743
