78
 energy: -128.377795636496 gnorm: 0.000065262852 xtb: 6.7.1 (edcfbbe)
C           10.10233477657080       -3.35009759070012        1.37984096275208
C            8.72998019227032       -3.40429738578305        1.21343323791693
C            8.03658666688936       -2.30473712546494        0.73684617634765
C            8.70657279448576       -1.12529698233874        0.42357199787558
C           10.10234810942527       -1.08745375477081        0.57669840536017
C           10.78845795791561       -2.18994633152047        1.05500165631851
O           10.84293761506874        0.02202333999117        0.25617010731065
C           10.17008705462159        1.12214943438919       -0.21169277373399
C           10.92337319472482        2.24135445420307       -0.51992488679683
C           10.30351226713537        3.39325448814229       -0.97941899365715
C            8.92729353547654        3.42237282237833       -1.11804027064347
C            8.16734556181188        2.30613191229367       -0.81256999047013
C            8.77424907090773        1.13483306852399       -0.36767821292577
N            8.04252706491491       -0.00330332952844       -0.05461148312739
C            6.63091770286071       -0.01326516829056       -0.20742355536660
C            6.06504681240622       -0.03400605255751       -1.47930049832645
C            4.69584757289279       -0.03540997925555       -1.63255983857450
C            3.84358070098654       -0.01724320917324       -0.51869134050568
C            2.39973936349543       -0.01094736851643       -0.61960920641272
C            1.69000479917750        0.05485538785544       -1.82953779276562
C            0.31809348328900        0.05905918720748       -1.83713822833739
C           -0.39836283874461       -0.00587816616567       -0.61650326198920
N           -1.71018125597180        0.00079369580622       -0.57120876416422
C           -2.39691285890065       -0.05740685786259        0.58759079843043
C           -3.84081015240341       -0.04711197188009        0.48934703261468
C           -4.69042517119512       -0.08644243856010        1.60484018237860
C           -6.05973906690260       -0.06912105778367        1.45575758090018
C           -6.62900160999269       -0.01149529509669        0.18653899620498
N           -8.04144154754809        0.01159512071470        0.04126761208159
C           -8.71872163865469       -1.10189569972183       -0.43775000101723
C           -8.05836081172020       -2.27668700310486       -0.78666262632931
C           -8.76530381405120       -3.36844827749520       -1.26135080804180
C          -10.14163547192481       -3.31090374128078       -1.38977684250016
C          -10.81758984397839       -2.15476791278237       -1.03104184392870
C          -10.11787955447256       -1.05984665351810       -0.55513209764219
O          -10.84836905567914        0.04597711023168       -0.20046026914436
C          -10.16221061942252        1.13829231295434        0.26639094374908
C          -10.90506366116877        2.25429833437389        0.60947088667341
C          -10.27124569898712        3.39790957508269        1.07075693170750
C           -8.89193957091283        3.42225029075888        1.17625562842134
C           -8.14237742096514        2.30896084665300        0.83635507580878
C           -8.76298694769079        1.14596577203059        0.38867606992449
C           -5.80312201137260        0.02655029039342       -0.93528321338886
C           -4.43673195977071        0.00740458587803       -0.78272419726338
C           -1.68653843605203       -0.12234367803846        1.79734577560292
C           -0.31485380809816       -0.12868420527822        1.80456221783823
C            0.40100091441315       -0.06974094861204        0.58337412100137
N            1.71271461521715       -0.06531849023390        0.53900890863783
C            4.43596100263015       -0.00567918734010        0.75607320869659
C            5.80181634031441       -0.00069666961723        0.91275337786365
H           10.64380375121505       -4.20435145672801        1.75412903012210
H            8.18815079205517       -4.30634927991922        1.45239385013704
H            6.96775719973978       -2.35531379018219        0.60184530737817
H           11.85940340421072       -2.12005089159828        1.16221925086422
H           11.99281757292238        2.19088406010537       -0.38939433450160
H           10.89750368465046        4.26102718152794       -1.21871066506583
H            8.43419456665487        4.31794982755703       -1.46324745650000
H            7.09408340652654        2.33738697787996       -0.91357049919729
H            6.71017190078754       -0.05092948593468       -2.34613090328087
H            4.28873931942802       -0.05873029942544       -2.63114831874952
H            2.22536391186201        0.10522645182272       -2.76457690997279
H           -0.24028695038805        0.10946529361223       -2.75944907057553
H           -4.28138597333460       -0.13281819718234        2.60175875524797
H           -6.70260119072757       -0.10080687799009        2.32387172257173
H           -6.98638595696085       -2.32957458397152       -0.68051206037712
H           -8.23111910466909       -4.26725544469768       -1.52811309388953
H          -10.69391192764455       -4.15934899554456       -1.76150573043296
H          -11.89087034351700       -2.08245669763605       -1.10922994594251
H          -11.97752672005615        2.20794609614255        0.50484561722849
H          -10.85713849705067        4.26318593373072        1.33744555438980
H           -8.38855725385557        4.31157655667235        1.52280643930710
H           -7.06691163771593        2.33538428272864        0.91263624050288
H           -6.24529176059321        0.07435176621187       -1.91999383401340
H           -3.78733444162433        0.04028932563155       -1.64398385869859
H           -2.22110932526614       -0.17283782514311        2.73276246431008
H            0.24391532130190       -0.18115334196517        2.72650801979967
H            3.78432132335109        0.00726079514730        1.61613887309051
H            6.24136736103668        0.01663583103467        1.89966013738070
