  66
       -103.73350794
 O          6.3647946006        1.9377605973       -1.2663073189
 S          5.7392779547        1.3986255750       -0.0816186208
 O          5.8060374564        2.1798755207        1.1310025471
 C          6.4265738281       -0.2330701494        0.2436833996
 C          6.8823244837       -0.9963183219       -0.8144977903
 C          7.3514228972       -2.2763884919       -0.5729409192
 C          7.3525471482       -2.7794101811        0.7190253216
 C          6.8921147503       -2.0053851102        1.7731630595
 C          6.4218711547       -0.7249572085        1.5349242151
 C          4.0420774438        1.0031138254       -0.4377131358
 C          3.6599060218        0.6882819121       -1.7419954379
 C          2.3735926594        0.3107583331       -2.0102121075
 C          1.3871807016        0.2289857811       -0.9791509955
 C          0.0520122939       -0.1507441373       -1.2467917189
 C         -0.3137847469       -0.8258669449       -2.4702905973
 C         -1.5832542058       -1.2132890835       -2.7426224228
 C         -2.6183688573       -0.9360819917       -1.8089257737
 C         -2.2784880826       -0.2435813911       -0.5915154153
 C         -1.0079318990        0.1170862764       -0.3108308396
 C         -3.5267286866       -0.0452397009        0.2486185175
 C         -3.2936789542       -0.7217828579        1.5843568299
 C         -3.6293822815       -2.0557636322        1.7735885305
 C         -3.3592759123       -2.6838089725        2.9769356710
 C         -2.7383493988       -1.9904365967        4.0009499012
 C         -2.3862957493       -0.6640840071        3.8139102610
 C         -2.6594203771       -0.0345202636        2.6135560073
 C         -3.9360115134        1.4092783753        0.3881736036
 C         -4.8127174580        1.7936141838        1.3967415977
 C         -5.2385016400        3.1054275450        1.4941324064
 C         -4.8001936108        4.0498698766        0.5809811676
 C         -3.9373976023        3.6716116033       -0.4326248672
 C         -3.5124186565        2.3583403414       -0.5326347329
 C         -4.5778050942       -0.7218901797       -0.6080364437
 C         -5.9182332670       -0.8692871689       -0.3709352169
 C         -6.7074587820       -1.5144679594       -1.3258541259
 C         -6.1462908191       -1.9970378252       -2.5130523832
 C         -4.8065147685       -1.8543214128       -2.7750376104
 C         -3.9919070625       -1.2098941209       -1.8190050914
 C          1.8226635570        0.5555478368        0.3427776985
 C          3.1153345534        0.9171025821        0.6014233825
 H          6.8822256400       -0.5690288184       -1.8049247977
 H          7.7166870529       -2.8800222196       -1.3898909703
 H          7.7183770962       -3.7781023987        0.9058265387
 H          6.9006307370       -2.3981353196        2.7788518296
 H          6.0693083661       -0.0905786334        2.3328802491
 H          4.3946132088        0.7806135628       -2.5264583277
 H          2.0913749090        0.1193678045       -3.0326880782
 H          0.4663273698       -1.0701059465       -3.1730809933
 H         -1.8181562899       -1.7392511575       -3.6558381787
 H         -0.7917717275        0.6560486130        0.5964511267
 H         -4.1068536834       -2.6067804930        0.9760562952
 H         -3.6324006406       -3.7199637013        3.1121971829
 H         -2.5266238626       -2.4808600322        4.9393328369
 H         -1.8973453164       -0.1167526579        4.6065910876
 H         -2.3912870961        1.0034151724        2.4783539208
 H         -5.1531920325        1.0641885992        2.1174470417
 H         -5.9150906082        3.3914556487        2.2860554608
 H         -5.1322037291        5.0743570419        0.6580461379
 H         -3.5941524660        4.4001762245       -1.1522505753
 H         -2.8440390027        2.0709823835       -1.3311715340
 H         -6.3646459464       -0.4995056889        0.5399989668
 H         -7.7638335603       -1.6412238736       -1.1462623906
 H         -6.7850753624       -2.4882889007       -3.2323208356
 H         -4.3739939147       -2.2222600650       -3.6926936739
 H          1.1304989593        0.4731959306        1.1647508779
 H          3.4425066964        1.1600558142        1.6001734744
