66
 energy: -103.780716043397 gnorm: 0.000050016101 xtb: 6.7.1 (edcfbbe)
O            6.24187192318840        1.07975876391713       -2.15619647455795
S            5.70979504673031        1.13923469242824       -0.80669701056409
O            5.78160444773120        2.42392461675643       -0.13534101945947
C            6.57369177540240       -0.08069146920731        0.19049032370194
C            7.40421700564487       -1.00237282014291       -0.41732647688663
C            8.02512765878354       -1.96801601282909        0.35842829711220
C            7.80350905707279       -2.00177407117975        1.72649936374211
C            6.96585785440994       -1.07206153328635        2.32549061277373
C            6.34330777564474       -0.10566855769913        1.55357304632702
C            4.02919830985177        0.57595582861402       -0.80651320752812
C            3.70197204593073       -0.57718609933335       -1.52310082773689
C            2.42883924838663       -1.07319626100700       -1.48022056139141
C            1.40134223977465       -0.43271389559181       -0.72042176329560
C            0.07981133694920       -0.93701477826095       -0.67695690570517
C           -0.21926987816764       -2.30196739081699       -1.04268135453861
C           -1.47446345063243       -2.81148934116672       -1.00384354845290
C           -2.55846601268449       -1.97991510866997       -0.61117796542467
C           -2.28431818095221       -0.60806099078547       -0.26173721619294
C           -1.02699670581010       -0.11291661993431       -0.26970398628636
C           -3.57979974671066        0.09293065239605        0.10896035970060
C           -3.43412198690851        0.61296986302131        1.52604259059944
C           -3.78107563365450       -0.17917456686765        2.61320999417578
C           -3.59012913940518        0.27826472157638        3.90567803013176
C           -3.03737036973612        1.52768298899700        4.12851346669228
C           -2.67344199046180        2.31672404665918        3.04961924498703
C           -2.86780062274937        1.86200078154241        1.75793175578052
C           -3.98692381215269        1.17259285039174       -0.87890066406265
C           -4.92996811304411        2.12910793583603       -0.51768420469742
C           -5.35641466707946        3.07599193041324       -1.43105727630170
C           -4.85117018307465        3.07747001348458       -2.72086146844447
C           -3.92042613103712        2.12201359888697       -3.09081144786528
C           -3.49575943561214        1.17172313321240       -2.17820957738489
C           -4.58440170285702       -1.03431007628018       -0.03438758695580
C           -5.93880173481837       -1.01497568627107        0.16864843042295
C           -6.67436355990537       -2.18107060625280       -0.05708468369238
C           -6.04654335299087       -3.35389939269282       -0.49237759404006
C           -4.69183792658241       -3.39481151594996       -0.70994645832859
C           -3.93138289270156       -2.22655094187045       -0.48316946796934
C            1.77839523924470        0.74680739964109       -0.00677398086309
C            3.05994070197896        1.22357478549684       -0.03958388677898
H            7.55723027461919       -0.93782145992067       -1.48376280172487
H            8.68042638335113       -2.69010268675518       -0.10468138529542
H            8.28712564183958       -2.75524213146522        2.32988735666181
H            6.79819540031392       -1.09999107580605        3.39144998528504
H            5.69277028882247        0.63649399851793        1.98936071186775
H            4.46929139037420       -1.04571662097020       -2.12011668510521
H            2.18994943723022       -1.93994315363764       -2.07433124862093
H            0.59910865052958       -2.95013453787864       -1.31074080206812
H           -1.66112680779543       -3.84424058979821       -1.25691675271002
H           -0.85478821415185        0.92221399620047       -0.02537942252385
H           -4.20510886225204       -1.15941835280730        2.44922780489541
H           -3.87200250348281       -0.34618505422385        4.74115961404281
H           -2.88771777214811        1.88436562982339        5.13715252720167
H           -2.23676692673839        3.29141498384571        3.21428853465127
H           -2.58853128093646        2.48750050281440        0.92221938103940
H           -5.32396479095096        2.14063097281668        0.48825943355449
H           -6.08635388582327        3.81556636359460       -1.13483223177080
H           -5.18387715015960        3.81743151771619       -3.43405094239306
H           -3.52372262594100        2.11230942739534       -4.09582683079770
H           -2.77475645099325        0.42614546420264       -2.48040717806173
H           -6.43793781027707       -0.11769482154444        0.50195439780608
H           -7.74141282723365       -2.17760335605017        0.10523647489908
H           -6.64550962091718       -4.23736574389687       -0.65983540466773
H           -4.20732281707073       -4.29707873595509       -1.04975175971681
H            1.05287520634600        1.24890006930734        0.61224187834879
H            3.35145816433965        2.10710306720161        0.50800098599962
