  78
  -126.247783834500       0.430972815881906      !
 N         -6.9957020902       -3.4831288518        0.5279265359
 C         -5.7036744379       -3.0766966880        0.2876496289
 C         -4.6305236204       -3.9555987998        0.4883932064
 C         -3.3496753730       -3.5627296580        0.1900440658
 C         -3.0373860910       -2.2931847788       -0.3184987765
 C         -4.1341873189       -1.4361374202       -0.5416201897
 C         -5.4363328019       -1.8189680501       -0.2328764552
 O         -4.0397436948       -0.1800256152       -1.0600012083
 C         -2.8560277390        0.3382911369       -1.4647371463
 C         -2.8763838977        1.6169030301       -1.9961070576
 C         -1.6884619900        2.2088345184       -2.4240829761
 N         -1.6856821038        3.5135788144       -2.8582601138
 C         -0.4916375765        1.4955983262       -2.3436372388
 C         -0.4876307548        0.2214014267       -1.8038524460
 C         -1.6624783981       -0.3870220459       -1.3393084858
 B         -1.6363971468       -1.7518885745       -0.6685890063
 C         -0.2026660794       -2.2768669728       -0.4149575220
 C          0.1727795201       -3.3639669027        0.3866944332
 C          1.4842721590       -3.6801494684        0.6529198407
 C          2.5204361899       -2.9296165436        0.0830229806
 N          3.8275362607       -3.1822682332        0.4712968662
 C          4.9417094754       -2.3682003283        0.3247223680
 C          6.1699610489       -2.9480018562        0.0863414966
 C          7.3114020664       -2.1672049331       -0.1314192615
 C          7.2269391812       -0.8039113964       -0.1650776902
 C          5.9978099132       -0.1629114305        0.1029940571
 C          5.8518592044        1.2300719300        0.0409266361
 C          4.6332465102        1.8485728596        0.2522307254
 C          4.4674845305        3.2563420364        0.0374148106
 C          3.2591825399        3.8407209150        0.1410931131
 C          2.0886416624        3.0941950630        0.5007935983
 C          0.8453621348        3.6883432733        0.4979670582
 C         -0.3212346998        2.9770661806        0.8319003464
 C         -1.5930550850        3.5466083423        0.7754221971
 C         -2.7293857244        2.8170612521        1.1031759923
 C         -4.0326406000        3.3710254758        1.0182297632
 C         -5.1293974504        2.6325671790        1.3381324312
 C         -4.9910726402        1.2963966916        1.7727072313
 C         -3.7596434760        0.7276457739        1.8706818191
 C         -2.5914252909        1.4579694413        1.5330783998
 C         -1.3254096409        0.8887713878        1.5909453168
 C         -0.1858571916        1.6102984965        1.2361268966
 C          1.0925584253        1.0203549545        1.2336519103
 C          2.2215162747        1.7084192508        0.8497937403
 C          3.5190568261        1.0742544001        0.6918045908
 C          3.6936408463       -0.2858603304        0.8549778004
 C          4.8594037547       -0.9463650191        0.4432933520
 C          2.1868282162       -1.9251374886       -0.8152457145
 C          0.8570913967       -1.5527043439       -0.9956915760
 O          0.7054390009       -0.4212459395       -1.7392247074
 H         -7.1203758208       -4.2707122272        1.1420813313
 H         -7.6937682429       -2.7624056591        0.6054401935
 H         -4.8252685104       -4.9458739893        0.8758340891
 H         -2.5484799799       -4.2693513564        0.3398015670
 H         -6.2366640663       -1.1181495835       -0.4175819954
 H         -3.8111089172        2.1522111671       -2.0571428630
 H         -0.8892179644        3.8104876275       -3.3975009815
 H         -2.5697933839        3.8953439119       -3.1513103691
 H          0.4355960257        1.9380492446       -2.6733705678
 H         -0.5998955668       -3.9480846360        0.8610084735
 H          1.7257657940       -4.4910300497        1.3263388690
 H          4.0253664637       -4.1385837807        0.7282637256
 H          6.2487967219       -4.0254595939        0.0360138624
 H          8.2542604864       -2.6613107704       -0.3153004679
 H          8.0923298929       -0.2004980433       -0.3952052974
 H          6.7118573379        1.8299727752       -0.2239723506
 H          5.3402762064        3.8290580748       -0.2437775063
 H          3.1368736113        4.8967304376       -0.0567361773
 H          0.7546290150        4.7287504667        0.2164090577
 H         -1.6960313729        4.5742346531        0.4555267864
 H         -4.1327203849        4.3952575365        0.6868657990
 H         -6.1188721347        3.0604977902        1.2631438431
 H         -5.8764226310        0.7301084745        2.0225213287
 H         -3.6467480867       -0.2975193432        2.1946197150
 H         -1.2225741223       -0.1433051034        1.8980238342
 H          1.1457405984       -0.0177189274        1.5246034880
 H          2.9002340352       -0.8761597529        1.2768231633
 H          2.9476220229       -1.3532502647       -1.3208685544
  78
  -126.247310914600       0.261282870983146      !
 N         -7.0075968129       -4.1348635963        0.2287262550
 C         -5.7450328126       -3.6138065265        0.0719844377
 C         -4.6129956251       -4.4209127100        0.2502947920
 C         -3.3579356402       -3.9100261185        0.0328224978
 C         -3.1309023054       -2.5861270466       -0.3716556784
 C         -4.2836612699       -1.8009877232       -0.5773141040
 C         -5.5607988503       -2.3027989887       -0.3436569123
 O         -4.2700576802       -0.5070077442       -1.0055331992
 C         -3.1192740724        0.1182249531       -1.3521199860
 C         -3.2189713089        1.4260727450       -1.7960694766
 C         -2.0663377565        2.1282065304       -2.1456266946
 N         -2.1612051776        3.4218536918       -2.6077151800
 C         -0.8237085350        1.4974311572       -2.0832098023
 C         -0.7400341098        0.1911760627       -1.6337441090
 C         -1.8785860910       -0.5250954388       -1.2367943696
 B         -1.7670606160       -1.9197757133       -0.6411730386
 C         -0.3055439863       -2.3540163537       -0.3785009354
 C          0.1290590341       -3.4575660969        0.3688408778
 C          1.4558169225       -3.7156513638        0.6163261598
 C          2.4518283155       -2.8860936911        0.0825066356
 N          3.7695607657       -3.1346552294        0.4326202378
 C          4.9041506605       -2.3526324390        0.2668582385
 C          6.1014182282       -2.9833845698       -0.0031242939
 C          7.2774846667       -2.2563583105       -0.2178103518
 C          7.2625568988       -0.8902902815       -0.2050359853
 C          6.0699651654       -0.1980252513        0.0964031915
 C          6.0050759853        1.2023148478        0.0974496809
 C          4.8260604970        1.8810266743        0.3431508337
 C          4.7478468914        3.3064729932        0.2106761411
 C          3.5761391381        3.9565229553        0.3390373512
 C          2.3572615824        3.2595320006        0.6314946684
 C          1.1485493705        3.9217095720        0.6283972982
 C         -0.0660020678        3.2558550981        0.8751527756
 C         -1.3058079124        3.8907242374        0.7931106644
 C         -2.4909453496        3.2010627689        1.0198812083
 C         -3.7613190372        3.8222974809        0.9013973497
 C         -4.9062159424        3.1213132989        1.1212144230
 C         -4.8534634793        1.7574766926        1.4839649113
 C         -3.6563765304        1.1255832282        1.6128718694
 C         -2.4392397597        1.8151683762        1.3769276710
 C         -1.2061608239        1.1824941798        1.4666628999
 C         -0.0173435455        1.8636031293        1.2055096328
 C          1.2275515439        1.2073886987        1.2173239370
 C          2.4032523636        1.8510793025        0.9029953423
 C          3.6653162844        1.1518001781        0.7354854658
 C          3.7606635158       -0.2222188891        0.8412739573
 C          4.8908758968       -0.9312956202        0.4134049776
 C          2.0614723043       -1.8425558948       -0.7449334064
 C          0.7117091656       -1.5347264848       -0.9057835506
 O          0.4943498722       -0.3693364103       -1.5775484698
 H         -7.0914626900       -4.9772709647        0.7728491446
 H         -7.7644962161       -3.4793436166        0.3294805102
 H         -4.7420272776       -5.4499182550        0.5552129051
 H         -2.5081202738       -4.5619690859        0.1612547331
 H         -6.4085723631       -1.6549450951       -0.5099537949
 H         -4.1866688605        1.8997990568       -1.8483014336
 H         -1.3169531594        3.9690072340       -2.5640973754
 H         -3.0001681720        3.9190924580       -2.3566086317
 H          0.0757861071        2.0269828241       -2.3562432501
 H         -0.6105274869       -4.1074258595        0.8091462530
 H          1.7424094100       -4.5506156446        1.2410482656
 H          3.9621790175       -4.0994302832        0.6630734618
 H          6.1276906062       -4.0622544471       -0.0760025458
 H          8.1913806664       -2.7920117708       -0.4289055972
 H          8.1558446347       -0.3235886634       -0.4211521353
 H          6.8987723491        1.7622899367       -0.1418565501
 H          5.6571418878        3.8408424473       -0.0264941440
 H          3.5202903621        5.0280848420        0.2058821912
 H          1.1250893376        4.9809003103        0.4078679103
 H         -1.3438103399        4.9418196209        0.5377529516
 H         -3.7976765399        4.8689292699        0.6303915697
 H         -5.8691369107        3.6017763276        1.0226243157
 H         -5.7762328777        1.2231514104        1.6543710254
 H         -3.6070129980        0.0811401071        1.8866968108
 H         -1.1675702406        0.1322269557        1.7217690876
 H          1.2155116891        0.1543378429        1.4522346309
 H          2.9303790897       -0.7835150986        1.2299699465
 H          2.7867862584       -1.2008460956       -1.2177534631
  78
  -126.246850919800       0.160587584705237      !
 N         -6.9463105434       -2.6213558714       -0.4680838124
 C         -5.6318751031       -2.4035724180       -0.1196518624
 C         -4.6517599543       -3.3684940310       -0.3878917136
 C         -3.3328100314       -3.1106200650       -0.1087745926
 C         -2.8898733707       -1.8980938796        0.4398558063
 C         -3.8945848934       -0.9507639955        0.7210260867
 C         -5.2356391972       -1.2026116836        0.4483243429
 O         -3.6690609772        0.2739100431        1.2724273998
 C         -2.4360928543        0.6543332205        1.6837049172
 C         -2.3248196889        1.9033229721        2.2731585478
 C         -1.0827178624        2.3506540763        2.7214819861
 N         -0.9713403677        3.5677919329        3.3532901072
 C          0.0381900499        1.5315343687        2.5831214600
 C         -0.0888240592        0.2915925440        1.9825973756
 C         -1.3212831315       -0.1769811736        1.5062371126
 B         -1.4367912583       -1.5070466070        0.7763261581
 C         -0.0625156968       -2.1511379823        0.4679383054
 C          0.2003069816       -3.2203730107       -0.3999078560
 C          1.4743827051       -3.6154337368       -0.7407571002
 C          2.5816743420       -2.9712301474       -0.1778310934
 N          3.8599038220       -3.2302094519       -0.6567118218
 C          4.9496549368       -2.3772587971       -0.5545406614
 C          6.2175399569       -2.8859510783       -0.3760984464
 C          7.3113424088       -2.0361734806       -0.1638897690
 C          7.1374759558       -0.6847229330       -0.0584638192
 C          5.8611289983       -0.1155104552       -0.2638290931
 C          5.6085757774        1.2545140114       -0.1028950076
 C          4.3393382107        1.7851348752       -0.2492276709
 C          4.0588097215        3.1494649327        0.0895140398
 C          2.8061321688        3.6402104038        0.0340104558
 C          1.7004921769        2.8409475473       -0.4074167612
 C          0.4154906117        3.3384377612       -0.3869664622
 C         -0.6858560874        2.5786400894       -0.8206645454
 C         -1.9965239478        3.0548461014       -0.7783965682
 C         -3.0644311542        2.2876822181       -1.2287655771
 C         -4.4030800969        2.7549751188       -1.1842767002
 C         -5.4283781918        1.9855278942       -1.6393724115
 C         -5.1802174257        0.6998359735       -2.1672102698
 C         -3.9121602885        0.2112765766       -2.2207069008
 C         -2.8147435139        0.9792632650       -1.7544556114
 C         -1.5121483091        0.4969932164       -1.7848926082
 C         -0.4399937109        1.2623570036       -1.3264616988
 C          0.8776889807        0.7669712618       -1.3299423823
 C          1.9444073075        1.5042141804       -0.8678751122
 C          3.2860625161        0.9616009911       -0.7461972395
 C          3.5622478341       -0.3669122902       -1.0003625737
 C          4.7772403531       -0.9599685284       -0.6293841432
 C          2.3572827699       -2.0122084488        0.8010827937
 C          1.0692431259       -1.5504158038        1.0534078534
 O          1.0362265981       -0.4566075300        1.8640691504
 H         -7.2291449270       -3.5804049483       -0.5876861512
 H         -7.6308933836       -2.0295258728       -0.0264432494
 H         -4.9479650420       -4.3173353660       -0.8131377908
 H         -2.6055510150       -3.8833282932       -0.3044130900
 H         -5.9609811570       -0.4376265699        0.6819498600
 H         -3.2031737115        2.5206722524        2.3792413032
 H         -0.0468221466        3.9610066793        3.4134620444
 H         -1.7116296666        4.2307183592        3.1939288327
 H          1.0068511496        1.8617352468        2.9248949311
 H         -0.6318181398       -3.7177684659       -0.8731330952
 H          1.6284877569       -4.3963060490       -1.4726335232
 H          4.0567211733       -4.1782228057       -0.9411743234
 H          6.3673052888       -3.9567566289       -0.3608672747
 H          8.2905448551       -2.4720155568       -0.0289343231
 H          7.9663588809       -0.0371102154        0.1857517934
 H          6.4230954972        1.9013635220        0.1934307377
 H          4.8818576638        3.7643584643        0.4264092163
 H          2.5994300393        4.6607679779        0.3265267723
 H          0.2412758886        4.3435402047       -0.0257440582
 H         -2.1841885999        4.0463888814       -0.3886454960
 H         -4.5890426407        3.7399113536       -0.7789747436
 H         -6.4450374187        2.3499785991       -1.6004015075
 H         -6.0101090969        0.1045024236       -2.5184102465
 H         -3.7170867198       -0.7783717845       -2.6078393294
 H         -1.3252385023       -0.4976953496       -2.1650878008
 H          1.0152423467       -0.2362054859       -1.7032286783
 H          2.8158825603       -0.9879842309       -1.4627557428
 H          3.1780522277       -1.5340325429        1.3105999588
  78
  -126.246348548100       9.437086116355982E-002 !
 N         -6.8828062039       -2.3926169670       -0.5160073810
 C         -5.5560993344       -2.1808288351       -0.2160398493
 C         -4.5952925752       -3.1628216341       -0.4896317497
 C         -3.2835952852       -2.9638688896       -0.1381153122
 C         -2.8252710267       -1.7947040939        0.4868965320
 C         -3.8130545121       -0.8294649121        0.7683989492
 C         -5.1476270608       -1.0227236399        0.4265846926
 O         -3.5746788474        0.3666689445        1.3735901389
 C         -2.3389762646        0.7168530369        1.8008008240
 C         -2.2141631455        1.9519646937        2.4163430535
 C         -0.9687265132        2.3745253534        2.8789980774
 N         -0.8459571328        3.5729416165        3.5426288392
 C          0.1428659327        1.5466603525        2.7201004077
 C          0.0015032991        0.3189948719        2.0972456461
 C         -1.2364962063       -0.1296546787        1.6149880911
 B         -1.3720854798       -1.4561956587        0.8806726135
 C         -0.0091255902       -2.1418513832        0.6072701014
 C          0.2350670712       -3.2514250902       -0.2144359453
 C          1.5005193570       -3.6720582274       -0.5554396227
 C          2.6193524902       -3.0062301492       -0.0441211039
 N          3.8861688766       -3.2749052962       -0.5477472517
 C          4.9547365248       -2.3923146042       -0.5592788548
 C          6.2453389949       -2.8636803468       -0.4497770188
 C          7.3285389393       -1.9813730068       -0.3472474907
 C          7.1264000649       -0.6314138558       -0.2761875726
 C          5.8244887710       -0.1014994616       -0.4132612288
 C          5.5458738840        1.2658376567       -0.2743634651
 C          4.2571098141        1.7606293157       -0.3621080023
 C          3.9575758720        3.1210753580       -0.0250700129
 C          2.6906818778        3.5769059909       -0.0226013584
 C          1.5900165202        2.7501393944       -0.4233036856
 C          0.2973250815        3.2245644217       -0.3770297853
 C         -0.7956190819        2.4550322437       -0.8142123595
 C         -2.1095677580        2.9221962316       -0.7770200098
 C         -3.1642648050        2.1663196159       -1.2749070308
 C         -4.5022255387        2.6376003467       -1.2649233509
 C         -5.5098593899        1.8951592457       -1.7974566052
 C         -5.2428157920        0.6309170473       -2.3665442915
 C         -3.9777155528        0.1319574251       -2.3749937810
 C         -2.8979696639        0.8744346960       -1.8321852718
 C         -1.5957097913        0.3897678673       -1.8325369390
 C         -0.5348415839        1.1485401310       -1.3381652954
 C          0.7880451717        0.6653976517       -1.3405084765
 C          1.8482099946        1.4166881251       -0.8862876380
 C          3.2027683778        0.9009201055       -0.7911201859
 C          3.4956861150       -0.4302412838       -1.0099880077
 C          4.7415873711       -0.9835375916       -0.6806675341
 C          2.4167380280       -2.0155967894        0.9075993708
 C          1.1348791069       -1.5403720187        1.1685280836
 O          1.1213119851       -0.4328886534        1.9598007647
 H         -7.0832120894       -3.0868191329       -1.2171656329
 H         -7.4729196001       -1.5773668745       -0.5420562823
 H         -4.9001202666       -4.0779346870       -0.9780660717
 H         -2.5747764496       -3.7485874203       -0.3498244728
 H         -5.8573199652       -0.2438365687        0.6617336573
 H         -3.0857238953        2.5769537354        2.5335992546
 H          0.0816934380        3.9553032470        3.6201510264
 H         -1.5810782080        4.2465227205        3.4063541890
 H          1.1155464331        1.8584545140        3.0677674794
 H         -0.6047805656       -3.7666023165       -0.6521148868
 H          1.6381295406       -4.4859206039       -1.2538446807
 H          4.0873176267       -4.2309214061       -0.8002098469
 H          6.4231035746       -3.9293075959       -0.4044317909
 H          8.3260191631       -2.3882983685       -0.2666990309
 H          7.9521255471        0.0445892924       -0.1113872832
 H          6.3585128850        1.9400669691       -0.0407091581
 H          4.7789551344        3.7600695797        0.2680468561
 H          2.4692529225        4.5925875559        0.2755919099
 H          0.1116158428        4.2244594736       -0.0076906209
 H         -2.3085280619        3.9026383259       -0.3658867835
 H         -4.7014192290        3.6067013343       -0.8294149575
 H         -6.5252460127        2.2654424438       -1.7911822934
 H         -6.0583168810        0.0629485069       -2.7912761256
 H         -3.7688167366       -0.8425192839       -2.7925146880
 H         -1.3986251360       -0.5963375048       -2.2294773025
 H          0.9381166667       -0.3332937359       -1.7212222217
 H          2.7407844689       -1.0819889414       -1.4124902198
 H          3.2497477345       -1.5245788023        1.3844274907
  78
  -126.245799510400       5.278586726615139E-002 !
 N         -6.8184113547       -2.1093392072       -0.5236174738
 C         -5.4907528060       -1.9494884039       -0.1956129914
 C         -4.5546372177       -2.9487857072       -0.4885739284
 C         -3.2428199826       -2.7991344970       -0.1135632025
 C         -2.7591691631       -1.6659296761        0.5564880116
 C         -3.7234474394       -0.6814172112        0.8534047757
 C         -5.0581530236       -0.8254642514        0.4899450086
 O         -3.4604970357        0.4897649088        1.4958118933
 C         -2.2152405900        0.8073821917        1.9200188507
 C         -2.0635664506        2.0288559088        2.5562471393
 C         -0.8073001521        2.4218234496        3.0157684455
 N         -0.6586404871        3.6038197554        3.7023266363
 C          0.2883318474        1.5790994764        2.8279801955
 C          0.1192265250        0.3640974441        2.1869451428
 C         -1.1312156836       -0.0580605185        1.7127041957
 B         -1.3004070591       -1.3783872799        0.9730475501
 C          0.0432806899       -2.1063573757        0.7106709033
 C          0.2561428675       -3.2455663952       -0.0790761063
 C          1.5079463552       -3.6934557618       -0.4354579637
 C          2.6455119645       -3.0233230125        0.0258935958
 N          3.8964160583       -3.3008915409       -0.5119608096
 C          4.9483830103       -2.4019863715       -0.5887999059
 C          6.2517849592       -2.8433130941       -0.5127169184
 C          7.3171532092       -1.9347050097       -0.4648955734
 C          7.0866511445       -0.5884178035       -0.4092447014
 C          5.7692751928       -0.0900455683       -0.5134189822
 C          5.4598378923        1.2710702575       -0.3776100442
 C          4.1567298325        1.7317919717       -0.4354610657
 C          3.8271561198        3.0817605518       -0.0848349686
 C          2.5483923375        3.5022592393       -0.0534614256
 C          1.4641142504        2.6526415263       -0.4507266291
 C          0.1615357919        3.0978295344       -0.3966147022
 C         -0.9135703081        2.3143751113       -0.8532479565
 C         -2.2353429515        2.7593451743       -0.8242132213
 C         -3.2695478222        2.0001301768       -1.3587598788
 C         -4.6135916741        2.4538405265       -1.3661034511
 C         -5.5984239042        1.7158152299       -1.9455653565
 C         -5.3013430823        0.4730005913       -2.5461137933
 C         -4.0306944996       -0.0119639738       -2.5341538357
 C         -2.9738943620        0.7267401608       -1.9431535677
 C         -1.6652624660        0.2594815237       -1.9273730872
 C         -0.6243092389        1.0226040275       -1.3989250585
 C          0.7072191306        0.5627732691       -1.3949183289
 C          1.7501429436        1.3298492094       -0.9278722977
 C          3.1164036777        0.8444154723       -0.8418196291
 C          3.4353682276       -0.4825186618       -1.0478492873
 C          4.7009350870       -1.0012137575       -0.7369740802
 C          2.4762411816       -2.0118126657        0.9620386645
 C          1.2067321410       -1.5157037411        1.2429613995
 O          1.2264099915       -0.3998076094        2.0213949147
 H         -7.0247598502       -2.7711250342       -1.2540532477
 H         -7.3765271342       -1.2713914022       -0.5404265624
 H         -4.8775256099       -3.8374188952       -1.0130512587
 H         -2.5544109358       -3.5954012585       -0.3469883977
 H         -5.7478657151       -0.0324845762        0.7369461020
 H         -2.9232806451        2.6663679362        2.6924299013
 H          0.2755133332        3.9690347597        3.7826352976
 H         -1.3850602929        4.2912924589        3.5920767018
 H          1.2702214777        1.8682554010        3.1692006357
 H         -0.5988055714       -3.7668694613       -0.4778383454
 H          1.6191031694       -4.5296578115       -1.1118173109
 H          4.0987121406       -4.2608067120       -0.7476371819
 H          6.4552076101       -3.9033574372       -0.4492107178
 H          8.3258638708       -2.3175057732       -0.4099984187
 H          7.9015513995        0.1082696612       -0.2807562928
 H          6.2602723329        1.9670445241       -0.1667079846
 H          4.6363619164        3.7408493263        0.1974415576
 H          2.3047022957        4.5084665670        0.2590346862
 H         -0.0460887464        4.0876939999       -0.0126467936
 H         -2.4561619405        3.7260826084       -0.3926864611
 H         -4.8350824649        3.4080059420       -0.9091335714
 H         -6.6176302561        2.0756243905       -1.9571902011
 H         -6.0979535294       -0.0883066463       -3.0137880941
 H         -3.7985444787       -0.9694216844       -2.9778132821
 H         -1.4467926289       -0.7147674037       -2.3418204800
 H          0.8800621834       -0.4268971020       -1.7894467129
 H          2.6872609606       -1.1573398613       -1.4246688253
 H          3.3259792359       -1.5211477476        1.4090229084
