  78
  -126.728495970000       0.449057301452256      !
 N         -6.8181328492       -2.9717468738       -0.1537016391
 C         -5.5133748839       -2.6620770032        0.1598046705
 C         -4.4905974928       -3.6013644405       -0.0281249984
 C         -3.1836155255       -3.2580357634        0.2126192756
 C         -2.7949359921       -1.9807035074        0.6424546839
 C         -3.8413808997       -1.0588516684        0.8451320682
 C         -5.1706882531       -1.3966136501        0.6104430216
 O         -3.6704249661        0.2207697049        1.2788072411
 C         -2.4543165439        0.6942637081        1.6406982698
 C         -2.3984043705        1.9963156509        2.1111738447
 C         -1.1760997059        2.5402137018        2.5036814070
 N         -1.1183414017        3.8145157119        3.0192678454
 C         -0.0187806938        1.7644907832        2.4301835406
 C         -0.0909054084        0.4696843372        1.9480095249
 C         -1.3027432740       -0.0974950432        1.5294496943
 B         -1.3598936017       -1.4934012968        0.9266514220
 C          0.0413014415       -2.0990847532        0.6651364361
 C          0.3490069227       -3.2308597495       -0.1029123649
 C          1.6382299895       -3.5964927135       -0.4187233109
 C          2.7172948193       -2.8523904115        0.0710823444
 N          4.0034742202       -3.0952759510       -0.3947682747
 C          5.0525384037       -2.1870673728       -0.3828194254
 C          6.3439302720       -2.6178739661       -0.1710303628
 C          7.3978293226       -1.7024347648       -0.0492676760
 C          7.1612982087       -0.3565184671       -0.0672984517
 C          5.8584551587        0.1315961557       -0.3113955608
 C          5.5427754642        1.4974940835       -0.2750757369
 C          4.2491891518        1.9530250129       -0.4569047085
 C          3.9068655935        3.3284468798       -0.2427366554
 C          2.6322210054        3.7535013135       -0.3306156566
 C          1.5627940312        2.8665117700       -0.6851497031
 C          0.2559859779        3.3038205787       -0.6976983155
 C         -0.8109611336        2.4569988272       -1.0482234409
 C         -2.1422803940        2.8739737219       -1.0368237817
 C         -3.1755763355        2.0198259482       -1.4036064797
 C         -4.5344138211        2.4268480580       -1.3888892505
 C         -5.5250686011        1.5719607785       -1.7605990398
 C         -5.2198679695        0.2557305910       -2.1699777803
 C         -3.9305967184       -0.1765417693       -2.1909855078
 C         -2.8677706775        0.6812606307       -1.8087640471
 C         -1.5441615185        0.2589777537       -1.8077422705
 C         -0.5064915816        1.1122787098       -1.4328093586
 C          0.8329606964        0.6801466955       -1.4038897942
 C          1.8665422849        1.5055637867       -1.0226851281
 C          3.2328851483        1.0391674057       -0.8650308475
 C          3.5696794226       -0.2929917472       -0.9982505674
 C          4.8133184118       -0.7923074674       -0.5864333811
 C          2.4537986523       -1.8181645924        0.9595041583
 C          1.1469790983       -1.3950094087        1.1811544481
 O          1.0673360986       -0.2334706427        1.8876691734
 H         -7.0563026050       -3.9497979582       -0.1813852762
 H         -7.5271795313       -2.3738104718        0.2383285395
 H         -4.7443774155       -4.5982107660       -0.3609383295
 H         -2.4220167613       -4.0111029187        0.0817938716
 H         -5.9297887776       -0.6476184489        0.7797848280
 H         -3.3041524239        2.5795739890        2.1687033923
 H         -0.2129771157        4.2539300817        3.0335142927
 H         -1.8898615446        4.4248844021        2.8068944955
 H          0.9352719045        2.1693723180        2.7301845973
 H         -0.4615736790       -3.8079092213       -0.5197451596
 H          1.8245861597       -4.4338786335       -1.0769096313
 H          4.2429430817       -4.0554588669       -0.5924769896
 H          6.5439073173       -3.6745851909       -0.0585281882
 H          8.3971880447       -2.0781585444        0.1154214388
 H          7.9602552226        0.3485636214        0.1076796592
 H          6.3277238398        2.2059831770       -0.0479967579
 H          4.7020690768        4.0093064672        0.0276001214
 H          2.3795181283        4.7861278301       -0.1314848932
 H          0.0368589805        4.3289452114       -0.4290607098
 H         -2.3740397327        3.8876341908       -0.7383927728
 H         -4.7640723660        3.4354576036       -1.0743819093
 H         -6.5574791183        1.8910668411       -1.7451434170
 H         -6.0229092362       -0.4073164879       -2.4562939348
 H         -3.6915105285       -1.1877327993       -2.4870591269
 H         -1.3129529396       -0.7569607445       -2.0963606426
 H          1.0153069085       -0.3458755230       -1.6843455669
 H          2.8506340359       -0.9880841003       -1.3937493322
 H          3.2541497370       -1.2573923441        1.4143613536
  78
  -126.727606310000       0.175162983903007      !
 N         -6.8212110092       -3.7388481178        0.9180609349
 C         -5.5511146657       -3.2971472292        0.6282141593
 C         -4.4367221731       -4.1031072237        0.8983575334
 C         -3.1774929688       -3.6807958846        0.5520548492
 C         -2.9281319060       -2.4507799625       -0.0746544217
 C         -4.0652518491       -1.6697246422       -0.3648217784
 C         -5.3461655263       -2.0820724885       -0.0088804224
 O         -4.0329186177       -0.4640516847       -0.9978799328
 C         -2.8772224485        0.0686814956       -1.4607067061
 C         -2.9606925448        1.2902227938       -2.1076118995
 C         -1.8043874645        1.8942150884       -2.6004167307
 N         -1.8654103133        3.1518264927       -3.1531960360
 C         -0.5749391715        1.2475966031       -2.4665978659
 C         -0.5079585781        0.0304707515       -1.8115561288
 C         -1.6502171164       -0.5859309687       -1.2809512391
 B         -1.5561680645       -1.8800820656       -0.4873939275
 C         -0.0979144085       -2.3124514316       -0.2009170025
 C          0.3328224824       -3.3020439480        0.6938253599
 C          1.6592415755       -3.5312238391        0.9748045253
 C          2.6556857816       -2.7896529941        0.3275876936
 N          3.9754422588       -2.9445341430        0.7242673530
 C          5.0492827393       -2.0969263698        0.4918877607
 C          6.3020045499       -2.6389270273        0.2956212790
 C          7.4042314603       -1.8297490162       -0.0048416365
 C          7.2556398008       -0.4808122898       -0.1633546105
 C          5.9993394863        0.1247691073        0.0568336425
 C          5.7877695060        1.4977603821       -0.1320835868
 C          4.5427009851        2.0761881284        0.0335528741
 C          4.3097604160        3.4488116885       -0.3086169960
 C          3.0759685722        3.9838017481       -0.2470955623
 C          1.9438891592        3.2205216308        0.1918245875
 C          0.6740816152        3.7537396951        0.1467539069
 C         -0.4558632970        3.0233127163        0.5567242010
 C         -1.7533356660        3.5257647870        0.4607944561
 C         -2.8522261182        2.7779924034        0.8659920196
 C         -4.1805314603        3.2608585213        0.7434737595
 C         -5.2395195362        2.5053245011        1.1412759232
 C         -5.0360718212        1.2230155711        1.6959230331
 C         -3.7787415900        0.7233296321        1.8335059712
 C         -2.6480929924        1.4724355082        1.4181066560
 C         -1.3564269511        0.9701860867        1.5154461985
 C         -0.2540988133        1.7076219485        1.0840087279
 C          1.0505771907        1.1797187597        1.1230567199
 C          2.1437255516        1.8806903574        0.6659015205
 C          3.4686787939        1.2952732402        0.5539961294
 C          3.7078934829       -0.0343311174        0.8402577953
 C          4.9009804509       -0.6755529402        0.4795200119
 C          2.2700588806       -1.8892583290       -0.6561503005
 C          0.9232723695       -1.5970229000       -0.8567287463
 O          0.7143321521       -0.5475783051       -1.6999654363
 H         -6.9051890009       -4.4710328672        1.6035318786
 H         -7.5518941186       -3.0470858528        0.9357754300
 H         -4.5824899145       -5.0611467600        1.3775161431
 H         -2.3431385677       -4.3326995216        0.7582828133
 H         -6.1795871756       -1.4391402445       -0.2493783986
 H         -3.9198658680        1.7737852657       -2.2083338184
 H         -1.0869146697        3.4339740872       -3.7255839725
 H         -2.7681627857        3.4635061383       -3.4712676780
 H          0.3285606658        1.6999676793       -2.8451444152
 H         -0.4087988784       -3.8747740406        1.2278404565
 H          1.9424590498       -4.2641606699        1.7177252107
 H          4.2194571131       -3.8627429018        1.0664041803
 H          6.4310630947       -3.7116101105        0.3441805795
 H          8.3681716210       -2.2946560822       -0.1518642986
 H          8.0903847951        0.1380291043       -0.4569591023
 H          6.6170909957        2.1096359350       -0.4599302908
 H          5.1530432423        4.0327298289       -0.6503065765
 H          2.9030516324        5.0101407920       -0.5403188779
 H          0.5329516250        4.7582591864       -0.2287157353
 H         -1.9063174903        4.5134527002        0.0484570073
 H         -4.3305272175        4.2442413203        0.3200013309
 H         -6.2484191624        2.8782628232        1.0371289142
 H         -5.8923830084        0.6420017173        2.0059038175
 H         -3.6159438922       -0.2610771034        2.2495407477
 H         -1.2034511672       -0.0231225715        1.9154344017
 H          1.1541432733        0.1766548677        1.5080443088
 H          2.9455492396       -0.6190313069        1.3228116570
 H          3.0002048600       -1.3321441935       -1.2200894445
  78
  -126.727589040000       0.171990948800190      !
 N         -6.7608085925       -2.7481795335       -0.3207448142
 C         -5.4463084168       -2.4513409717       -0.0397430228
 C         -4.4395236036       -3.4049878379       -0.2378692664
 C         -3.1395321545       -3.1176598445        0.0955383480
 C         -2.7384551850       -1.8833434456        0.6277484030
 C         -3.7714136176       -0.9470461960        0.8350907286
 C         -5.0945468311       -1.2290360547        0.5109456552
 O         -3.5912662298        0.3021943758        1.3457378171
 C         -2.3745106714        0.7423848599        1.7430248541
 C         -2.3096651330        2.0258714033        2.2611259105
 C         -1.0866908009        2.5413392965        2.6881460757
 N         -1.0222669438        3.7918992876        3.2570300039
 C          0.0631549846        1.7571781586        2.5922676396
 C         -0.0185560257        0.4797595707        2.0663217844
 C         -1.2328221511       -0.0628524465        1.6217641173
 B         -1.3038290547       -1.4470769916        0.9923238328
 C          0.0906546531       -2.0865695132        0.7709714654
 C          0.3889592292       -3.2435066057        0.0371488450
 C          1.6736815503       -3.6288996971       -0.2719562414
 C          2.7585829531       -2.8733932393        0.1849465664
 N          4.0378735126       -3.1199504523       -0.2980385197
 C          5.0635650409       -2.1913381192       -0.3791073155
 C          6.3747362355       -2.5912657882       -0.2351663229
 C          7.4147860254       -1.6534327560       -0.2025120117
 C          7.1489124553       -0.3130940506       -0.2357196196
 C          5.8237439072        0.1424769060       -0.4116596438
 C          5.4804975812        1.5017452782       -0.3784769519
 C          4.1700040372        1.9267701979       -0.5025382532
 C          3.8057168933        3.2934920388       -0.2712485886
 C          2.5186956638        3.6877191245       -0.3023839753
 C          1.4592839774        2.7813396767       -0.6365886503
 C          0.1455114270        3.1962483781       -0.6254535176
 C         -0.9088056354        2.3444153092       -1.0004618845
 C         -2.2434469160        2.7503858916       -0.9977927737
 C         -3.2600607417        1.9092720325       -1.4344283313
 C         -4.6188170693        2.3161049589       -1.4591737981
 C         -5.5889729749        1.4879210475       -1.9314505826
 C         -5.2611344874        0.1975458853       -2.4014881141
 C         -3.9738527345       -0.2401797473       -2.3729806940
 C         -2.9316916799        0.5922446114       -1.8905547585
 C         -1.6079865585        0.1711360977       -1.8551258785
 C         -0.5853369641        1.0151540306       -1.4222268605
 C          0.7589046382        0.5963853574       -1.3889278091
 C          1.7813005953        1.4298174777       -0.9954804745
 C          3.1584883631        0.9875877022       -0.8624820332
 C          3.5145020670       -0.3411545596       -0.9782093539
 C          4.7843713927       -0.8078100509       -0.6087188037
 C          2.5071215827       -1.8228979050        1.0575321882
 C          1.2036215545       -1.3900990737        1.2826044380
 O          1.1358553215       -0.2266866537        1.9859501608
 H         -6.9265194333       -3.5031688411       -0.9659061297
 H         -7.3887237722       -1.9662034106       -0.4089545034
 H         -4.6996056558       -4.3684866741       -0.6537385086
 H         -2.3939222778       -3.8819814376       -0.0558105768
 H         -5.8408099310       -0.4687526501        0.6861160129
 H         -3.2100622094        2.6161266732        2.3308559666
 H         -0.1139079934        4.2225528404        3.3035834373
 H         -1.7880709177        4.4174157384        3.0700574855
 H          1.0191861644        2.1405518361        2.9135531112
 H         -0.4245631124       -3.8300978217       -0.3583339339
 H          1.8512562054       -4.4868574607       -0.9055601187
 H          4.2845733719       -4.0820249536       -0.4761306796
 H          6.6025501178       -3.6406022796       -0.1078414143
 H          8.4301869346       -2.0052853378       -0.0920409492
 H          7.9413770658        0.4119151670       -0.1247086320
 H          6.2598105756        2.2296877267       -0.1986640066
 H          4.5952840948        3.9913508922       -0.0294394449
 H          2.2488101583        4.7117871635       -0.0832823674
 H         -0.0881174359        4.2117800063       -0.3342447934
 H         -2.4894920679        3.7491462281       -0.6633947980
 H         -4.8646173442        3.3054426630       -1.0995969032
 H         -6.6207350173        1.8091419116       -1.9525041293
 H         -6.0478736639       -0.4394680055       -2.7800144555
 H         -3.7181469164       -1.2330225808       -2.7142209645
 H         -1.3635810624       -0.8322566023       -2.1749334168
 H          0.9569058200       -0.4205117666       -1.6915243531
 H          2.7922006178       -1.0570198511       -1.3281765468
 H          3.3148622675       -1.2576659017        1.4939226776
  78
  -126.727262560000       0.121749103724306      !
 N         -6.7819439013       -4.3324419152        1.2210690903
 C         -5.5529773211       -3.7919690759        0.9249836689
 C         -4.3768217634       -4.5076514622        1.1880045691
 C         -3.1569611932       -3.9878455509        0.8341445999
 C         -3.0100327477       -2.7435597551        0.2032560418
 C         -4.2067384724       -2.0550452742       -0.0821131812
 C         -5.4485207087       -2.5641102199        0.2871027278
 O         -4.2721943501       -0.8534100528       -0.7222140794
 C         -3.1665881577       -0.2474722672       -1.2180120079
 C         -3.3463725526        0.9602785649       -1.8710908966
 C         -2.2428323143        1.6414984427       -2.3828375407
 N         -2.4177254822        2.8323900987       -3.0515961052
 C         -0.9690661125        1.0844386075       -2.2683612318
 C         -0.8051614580       -0.1214931498       -1.6094325166
 C         -1.8922917550       -0.8079642386       -1.0492363590
 B         -1.6911067311       -2.0748885698       -0.2326807303
 C         -0.2016004593       -2.3950018039        0.0365608155
 C          0.3129442371       -3.3356386835        0.9397040063
 C          1.6586845376       -3.4906944668        1.1701041186
 C          2.5931483822       -2.7220960304        0.4621481324
 N          3.9329898902       -2.8507025142        0.7923999891
 C          5.0209773196       -2.0603373427        0.4489801821
 C          6.2378632027       -2.6758726883        0.2380455174
 C          7.3682674267       -1.9461950793       -0.1460722123
 C          7.2861529895       -0.5997863857       -0.3627949193
 C          6.0719855280        0.0818600220       -0.1314358003
 C          5.9378947040        1.4578703768       -0.3633393330
 C          4.7360045441        2.1172733712       -0.1851707160
 C          4.5827103549        3.4947123892       -0.5522221613
 C          3.3854388914        4.1062482112       -0.4850984409
 C          2.2135288321        3.4175347915       -0.0276153183
 C          0.9741322791        4.0170570116       -0.0904104857
 C         -0.1965967785        3.3514072231        0.3166392349
 C         -1.4684324775        3.9092795356        0.1820260783
 C         -2.6093199208        3.2180538807        0.5721433704
 C         -3.9122638322        3.7549919042        0.4052451359
 C         -5.0126665523        3.0531625572        0.7886988021
 C         -4.8798014865        1.7744627968        1.3732454853
 C         -3.6491179800        1.2256605670        1.5553381450
 C         -2.4766063781        1.9166231646        1.1548303526
 C         -1.2113254495        1.3619320059        1.2969380660
 C         -0.0675412975        2.0390460359        0.8742427200
 C          1.2079805313        1.4484297984        0.9430705092
 C          2.3386697773        2.0790963390        0.4748675406
 C          3.6272033673        1.4163109937        0.3736106087
 C          3.7941212076        0.0856962627        0.7049919132
 C          4.9424441462       -0.6366871743        0.3546231088
 C          2.1229462749       -1.8522692385       -0.5116677132
 C          0.7548028115       -1.6344884283       -0.6641381283
 O          0.4566774809       -0.6107922748       -1.5125570502
 H         -6.8049420587       -5.0728051642        1.9023081987
 H         -7.5664035435       -3.7024218202        1.2423369031
 H         -4.4440090312       -5.4743525803        1.6670154812
 H         -2.2719347768       -4.5713655568        1.0340027338
 H         -6.3326279847       -1.9909703013        0.0505563101
 H         -4.3375782724        1.3762535272       -1.9608650522
 H         -1.6006022456        3.4146961696       -3.1368617946
 H         -3.2710110926        3.3286437527       -2.8521073257
 H         -0.1069811830        1.5979128618       -2.6648667264
 H         -0.3777297820       -3.9322357548        1.5143483228
 H          2.0079084072       -4.1941241694        1.9136144790
 H          4.1810814514       -3.7530392192        1.1735042161
 H          6.3149791355       -3.7492776138        0.3467501094
 H          8.2996474188       -2.4702454687       -0.3028976889
 H          8.1421888516       -0.0403212434       -0.7092357523
 H          6.7938622593        2.0067854604       -0.7315030714
 H          5.4555906496        4.0194516705       -0.9146397738
 H          3.2719722200        5.1361364401       -0.7942097638
 H          0.8905581835        5.0212902528       -0.4848716018
 H         -1.5673368156        4.8989936471       -0.2447492262
 H         -4.0098513135        4.7377199750       -0.0362594789
 H         -6.0010560427        3.4680875736        0.6519326933
 H         -5.7684637077        1.2378301008        1.6704826292
 H         -3.5385583773        0.2461248254        1.9986942042
 H         -1.1118838324        0.3730156463        1.7233011044
 H          1.2563177725        0.4511649272        1.3521797670
 H          3.0067282735       -0.4363827539        1.2177843691
 H          2.7986428351       -1.2698398537       -1.1163500884
  78
  -126.726889510000       8.203966212024075E-002 !
 N         -6.7033984815       -2.4605381868       -0.4737311285
 C         -5.3890776570       -2.2192006320       -0.1418676073
 C         -4.4029403283       -3.1869009614       -0.3695139276
 C         -3.1045511533       -2.9539126982        0.0096891935
 C         -2.6837592088       -1.7636178015        0.6205673393
 C         -3.6973731189       -0.8118001660        0.8527030380
 C         -5.0190350257       -1.0396651597        0.4844926398
 O         -3.4984691438        0.4042320634        1.4316678068
 C         -2.2751577051        0.8042407031        1.8499955596
 C         -2.1897056274        2.0647366634        2.4188869357
 C         -0.9594217522        2.5423659932        2.8683979381
 N         -0.8757417048        3.7661130112        3.4897014050
 C          0.1772758250        1.7442790601        2.7386540926
 C          0.0741670324        0.4891344978        2.1644301017
 C         -1.1487277346       -0.0181365471        1.7019022492
 B         -1.2456752992       -1.3837522624        1.0350624488
 C          0.1342715220       -2.0595599680        0.8269532282
 C          0.4109483827       -3.2289159227        0.1038595953
 C          1.6870097827       -3.6349822126       -0.2145777715
 C          2.7855520171       -2.8865387472        0.2201819517
 N          4.0549198362       -3.1327631224       -0.2889070367
 C          5.0639021502       -2.1898756158       -0.4050408312
 C          6.3857250049       -2.5631303130       -0.2915515836
 C          7.4060569299       -1.6030651956       -0.2836286048
 C          7.1112017303       -0.2684059849       -0.3051382635
 C          5.7730678006        0.1595245049       -0.4499817859
 C          5.3976559900        1.5095834526       -0.3930729807
 C          4.0749753838        1.9031981274       -0.4894335323
 C          3.6772671650        3.2529850302       -0.2176318602
 C          2.3796843072        3.6125624663       -0.2224329882
 C          1.3420785243        2.6912020778       -0.5827080834
 C          0.0192501429        3.0755076177       -0.5664160874
 C         -1.0115865430        2.2173098909       -0.9895476000
 C         -2.3532587908        2.5990954599       -0.9984724282
 C         -3.3434104345        1.7627551987       -1.5003309201
 C         -4.7072824781        2.1501855212       -1.5462839325
 C         -5.6485599294        1.3348835035       -2.0936698467
 C         -5.2852364575        0.0766559857       -2.6212712435
 C         -3.9932452332       -0.3452222380       -2.5697064156
 C         -2.9802647983        0.4748538203       -2.0101194757
 C         -1.6512251718        0.0726717233       -1.9553442182
 C         -0.6544418315        0.9128983124       -1.4597242557
 C          0.6972626279        0.5185782953       -1.4168878483
 C          1.6966020966        1.3594656664       -0.9827719324
 C          3.0831762921        0.9457943584       -0.8562515073
 C          3.4673677765       -0.3735777985       -0.9850723719
 C          4.7521091083       -0.8129015880       -0.6332460076
 C          2.5566283252       -1.8343914979        1.0969678311
 C          1.2615462763       -1.3852363681        1.3372114749
 O          1.2183784813       -0.2285654501        2.0526267816
 H         -6.8688456373       -3.1706539386       -1.1683097488
 H         -7.3004177793       -1.6526063427       -0.5426251494
 H         -4.6766164827       -4.1175375271       -0.8470275628
 H         -2.3762141526       -3.7277683834       -0.1722659793
 H         -5.7486895045       -0.2684038670        0.6801716174
 H         -3.0803739668        2.6666723476        2.5108606671
 H          0.0389269649        4.1797114841        3.5589283382
 H         -1.6325360271        4.4107358145        3.3341916126
 H          1.1399383837        2.0986676190        3.0730779719
 H         -0.4131759055       -3.8118883725       -0.2738536871
 H          1.8462834675       -4.5007984254       -0.8423084867
 H          4.3055303616       -4.0933409372       -0.4688759767
 H          6.6384359989       -3.6070614483       -0.1672424532
 H          8.4310329819       -1.9332934242       -0.1974849407
 H          7.8904122628        0.4726911597       -0.2074085935
 H          6.1614109694        2.2538058005       -0.2131658363
 H          4.4506327880        3.9647678310        0.0356721642
 H          2.0845612218        4.6215419985        0.0312489207
 H         -0.2399778189        4.0738538193       -0.2401084267
 H         -2.6251678566        3.5763572242       -0.6235290443
 H         -4.9795869574        3.1162758352       -1.1452464564
 H         -6.6834738667        1.6440564566       -2.1354380677
 H         -6.0483230989       -0.5471969168       -3.0649824162
 H         -3.7103062067       -1.3133511930       -2.9571653654
 H         -1.3815214891       -0.9112551696       -2.3128417378
 H          0.9218753050       -0.4818284916       -1.7540973027
 H          2.7569682369       -1.1033109885       -1.3312848269
 H          3.3763942200       -1.2795739307        1.5244758216
