  78
       -126.72849597
 N         -6.8181328492       -2.9717468738       -0.1537016391
 C         -5.5133748839       -2.6620770032        0.1598046705
 C         -4.4905974928       -3.6013644405       -0.0281249984
 C         -3.1836155255       -3.2580357634        0.2126192756
 C         -2.7949359921       -1.9807035074        0.6424546839
 C         -3.8413808997       -1.0588516684        0.8451320682
 C         -5.1706882531       -1.3966136501        0.6104430216
 O         -3.6704249661        0.2207697049        1.2788072411
 C         -2.4543165439        0.6942637081        1.6406982698
 C         -2.3984043705        1.9963156509        2.1111738447
 C         -1.1760997059        2.5402137018        2.5036814070
 N         -1.1183414017        3.8145157119        3.0192678454
 C         -0.0187806938        1.7644907832        2.4301835406
 C         -0.0909054084        0.4696843372        1.9480095249
 C         -1.3027432740       -0.0974950432        1.5294496943
 B         -1.3598936017       -1.4934012968        0.9266514220
 C          0.0413014415       -2.0990847532        0.6651364361
 C          0.3490069227       -3.2308597495       -0.1029123649
 C          1.6382299895       -3.5964927135       -0.4187233109
 C          2.7172948193       -2.8523904115        0.0710823444
 N          4.0034742202       -3.0952759510       -0.3947682747
 C          5.0525384037       -2.1870673728       -0.3828194254
 C          6.3439302720       -2.6178739661       -0.1710303628
 C          7.3978293226       -1.7024347648       -0.0492676760
 C          7.1612982087       -0.3565184671       -0.0672984517
 C          5.8584551587        0.1315961557       -0.3113955608
 C          5.5427754642        1.4974940835       -0.2750757369
 C          4.2491891518        1.9530250129       -0.4569047085
 C          3.9068655935        3.3284468798       -0.2427366554
 C          2.6322210054        3.7535013135       -0.3306156566
 C          1.5627940312        2.8665117700       -0.6851497031
 C          0.2559859779        3.3038205787       -0.6976983155
 C         -0.8109611336        2.4569988272       -1.0482234409
 C         -2.1422803940        2.8739737219       -1.0368237817
 C         -3.1755763355        2.0198259482       -1.4036064797
 C         -4.5344138211        2.4268480580       -1.3888892505
 C         -5.5250686011        1.5719607785       -1.7605990398
 C         -5.2198679695        0.2557305910       -2.1699777803
 C         -3.9305967184       -0.1765417693       -2.1909855078
 C         -2.8677706775        0.6812606307       -1.8087640471
 C         -1.5441615185        0.2589777537       -1.8077422705
 C         -0.5064915816        1.1122787098       -1.4328093586
 C          0.8329606964        0.6801466955       -1.4038897942
 C          1.8665422849        1.5055637867       -1.0226851281
 C          3.2328851483        1.0391674057       -0.8650308475
 C          3.5696794226       -0.2929917472       -0.9982505674
 C          4.8133184118       -0.7923074674       -0.5864333811
 C          2.4537986523       -1.8181645924        0.9595041583
 C          1.1469790983       -1.3950094087        1.1811544481
 O          1.0673360986       -0.2334706427        1.8876691734
 H         -7.0563026050       -3.9497979582       -0.1813852762
 H         -7.5271795313       -2.3738104718        0.2383285395
 H         -4.7443774155       -4.5982107660       -0.3609383295
 H         -2.4220167613       -4.0111029187        0.0817938716
 H         -5.9297887776       -0.6476184489        0.7797848280
 H         -3.3041524239        2.5795739890        2.1687033923
 H         -0.2129771157        4.2539300817        3.0335142927
 H         -1.8898615446        4.4248844021        2.8068944955
 H          0.9352719045        2.1693723180        2.7301845973
 H         -0.4615736790       -3.8079092213       -0.5197451596
 H          1.8245861597       -4.4338786335       -1.0769096313
 H          4.2429430817       -4.0554588669       -0.5924769896
 H          6.5439073173       -3.6745851909       -0.0585281882
 H          8.3971880447       -2.0781585444        0.1154214388
 H          7.9602552226        0.3485636214        0.1076796592
 H          6.3277238398        2.2059831770       -0.0479967579
 H          4.7020690768        4.0093064672        0.0276001214
 H          2.3795181283        4.7861278301       -0.1314848932
 H          0.0368589805        4.3289452114       -0.4290607098
 H         -2.3740397327        3.8876341908       -0.7383927728
 H         -4.7640723660        3.4354576036       -1.0743819093
 H         -6.5574791183        1.8910668411       -1.7451434170
 H         -6.0229092362       -0.4073164879       -2.4562939348
 H         -3.6915105285       -1.1877327993       -2.4870591269
 H         -1.3129529396       -0.7569607445       -2.0963606426
 H          1.0153069085       -0.3458755230       -1.6843455669
 H          2.8506340359       -0.9880841003       -1.3937493322
 H          3.2541497370       -1.2573923441        1.4143613536
