  69
  -112.095409100000       0.143068531172782      !
 N        -11.8934034603        0.0281286812       -0.0668864667
 C        -10.7461808497        0.0233055565       -0.0531446097
 C         -9.3342076958        0.0188325505       -0.0356040262
 C         -8.6223618720       -0.1620846188       -1.2229342420
 C         -7.2430500245       -0.1624961135       -1.1996966834
 C         -6.5514568658        0.0118522783       -0.0018813873
 C         -5.0746847310        0.0062280391        0.0126790635
 C         -4.3695711951        1.0552998317       -0.5944526042
 C         -5.0359119407        2.1591403119       -1.1893795158
 C         -4.3416787406        3.1575072015       -1.7999056389
 C         -2.9348638318        3.1098767801       -1.8604577691
 C         -2.2571041046        2.0819748436       -1.2809562443
 C         -2.9401086689        1.0352849642       -0.6069575112
 C         -2.2518951322       -0.0146551081        0.0196484817
 C         -0.7758633610       -0.0330509237        0.0133519549
 C         -0.0512870833        0.9425703210        0.6949542119
 C          1.3281969571        0.9282027018        0.6866203214
 C          2.0125288444       -0.0676723975       -0.0101622507
 C          3.4555015007       -0.0975318956       -0.0376518573
 N          4.1883878385       -0.9985888977       -0.6265548695
 C          5.4779792011       -0.6186586668       -0.3925696534
 C          6.7034493864       -1.2224289566       -0.7912169994
 C          6.7261092156       -2.3999968398       -1.5445432991
 C          7.9224471155       -2.9629975183       -1.9140496562
 C          9.1141975412       -2.3503178731       -1.5319694198
 C          9.1039155564       -1.1914165018       -0.7912032667
 C          7.9032703827       -0.5836272448       -0.3929518118
 C          7.8700402413        0.6404164007        0.3897187243
 C          9.0322361521        1.3093338040        0.8004610166
 C          8.9772958283        2.4675398469        1.5408423083
 C          7.7529135181        3.0203790694        1.9112858438
 C          6.5901729657        2.3993218713        1.5308480427
 C          6.6337977556        1.2199274351        0.7767791961
 C          5.4623624484        0.5455600623        0.3586751144
 O          4.1705768053        0.8767701704        0.5854936434
 C          1.2914663198       -1.0484402964       -0.6933143705
 C         -0.0864593042       -1.0286432165       -0.6784575201
 C         -2.9589605733       -1.0516576283        0.6468419279
 C         -2.2939100777       -2.1074688454        1.3245424418
 C         -2.9892149036       -3.1242072863        1.9029340045
 C         -4.3963204341       -3.1509953030        1.8366381084
 C         -5.0733560391       -2.1438593045        1.2212055517
 C         -4.3884421797       -1.0506533473        0.6277367299
 C         -7.2706722918        0.1902945510        1.1787437062
 C         -8.6502839557        0.1973861729        1.1682148103
 H         -9.1576918579       -0.3005152237       -2.1508173024
 H         -6.6867736630       -0.3052649070       -2.1146758611
 H         -6.1144318835        2.1973969488       -1.1463931679
 H         -4.8637131313        3.9903380837       -2.2472132978
 H         -2.4000649141        3.8987469884       -2.3681720453
 H         -1.1791958377        2.0472221567       -1.3298947249
 H         -0.5817397042        1.7099313553        1.2403258924
 H          1.8854826731        1.6847023558        1.2180274494
 H          5.7816206633       -2.8430749007       -1.8196380258
 H          7.9448554908       -3.8726001439       -2.4953810592
 H         10.0577833185       -2.7903728222       -1.8201995371
 H         10.0499138791       -0.7521555838       -0.5176142134
 H         10.0015638282        0.9184158795        0.5361891912
 H          9.8942000178        2.9546259462        1.8384528417
 H          7.7234363668        3.9299547114        2.4921127381
 H          5.6258593364        2.8029279010        1.8014927104
 H          1.8354381398       -1.8108317219       -1.2274095133
 H         -0.6463178543       -1.7819472802       -1.2135616531
 H         -1.2157598174       -2.0890719937        1.3768384731
 H         -2.4680549140       -3.9201303036        2.4137444209
 H         -4.9324064719       -3.9753932349        2.2829480463
 H         -6.1520927167       -2.1663771093        1.1739163260
 H         -6.7362993824        0.3305199754        2.1070994745
 H         -9.2072799891        0.3386149593        2.0828608741
  69
  -112.095405110000       0.142465741035485      !
 N        -11.8948913051        0.0280176454        0.0399493682
 C        -10.7476367020        0.0246776099        0.0325394027
 C         -9.3355810930        0.0198278949        0.0225740285
 C         -8.6472637780       -0.6008489828       -1.0215662523
 C         -7.2676463798       -0.6008186027       -1.0267050463
 C         -6.5523832617        0.0092434552        0.0026503824
 C         -5.0754304734        0.0033007883       -0.0072624465
 C         -4.3828284933        0.7522939747       -0.9696321059
 C         -5.0603383605        1.5531939706       -1.9266115342
 C         -4.3752722695        2.2857001272       -2.8463728076
 C         -2.9663149024        2.2756832565       -2.8575081285
 C         -2.2782081967        1.5345883305       -1.9470924162
 C         -2.9531847074        0.7450912214       -0.9790070194
 C         -2.2535347665       -0.0079093646       -0.0252619607
 C         -0.7759223215       -0.0157070771       -0.0361716963
 C         -0.0584774585        0.6241807319        0.9718130331
 C          1.3212622669        0.6200734337        0.9634009337
 C          2.0116928492       -0.0342276823       -0.0568220135
 C          3.4551136305       -0.0553988996       -0.0835853885
 N          4.1910805162       -0.6411484672       -0.9841297297
 C          5.4794612791       -0.3996109130       -0.6048156286
 C          6.7065852374       -0.7946427926       -1.2075970239
 C          6.7323002918       -1.5550732623       -2.3804990826
 C          7.9301613638       -1.9229520282       -2.9414219483
 C          9.1203459684       -1.5321484481       -2.3312549862
 C          9.1070583651       -0.7840134878       -1.1771311659
 C          7.9047841085       -0.3867191567       -0.5718475280
 C          7.8680465265        0.4047993941        0.6464454390
 C          9.0288205545        0.8317505806        1.3078043891
 C          8.9713539854        1.5820555705        2.4595017353
 C          7.7454807318        1.9463646501        3.0131014798
 C          6.5839710489        1.5496572966        2.3996296180
 C          6.6300463244        0.7856535463        1.2266826697
 C          5.4601587822        0.3540964579        0.5577571168
 O          4.1669498495        0.5730257714        0.8897240471
 C          1.2967846522       -0.6791687618       -1.0675840770
 C         -0.0814771594       -0.6650811870       -1.0557976344
 C         -2.9469599011       -0.7558015856        0.9369918725
 C         -2.2661809765       -1.5520309883        1.8954298589
 C         -2.9484278929       -2.2884348094        2.8139817241
 C         -4.3574241234       -2.2870711239        2.8209260409
 C         -5.0482107781       -1.5481619606        1.9106573825
 C         -4.3766017282       -0.7515378966        0.9459674856
 C         -7.2483277103        0.6248423438        1.0419371325
 C         -8.6278204248        0.6353521707        1.0566654471
 H         -9.2010017736       -1.0767275380       -1.8176189877
 H         -6.7300650083       -1.0827423244       -1.8303440827
 H         -6.1399117572        1.5796911280       -1.9088874834
 H         -4.9063962856        2.8883925464       -3.5681482650
 H         -2.4386608042        2.8703652495       -3.5882675592
 H         -1.1985018628        1.5425674535       -1.9432399196
 H         -0.5945055306        1.1323698256        1.7605600326
 H          1.8737208949        1.1208014565        1.7440464632
 H          5.7889516499       -1.8376191130       -2.8213228938
 H          7.9549216526       -2.5100599003       -3.8472385981
 H         10.0651295171       -1.8197110922       -2.7692204415
 H         10.0520342435       -0.5042600802       -0.7395845616
 H          9.9991527683        0.5733472083        0.9154323448
 H          9.8873266964        1.8926207466        2.9403890315
 H          7.7138670924        2.5357451544        3.9171335950
 H          5.6187829798        1.8158657058        2.8041509757
 H          1.8455336042       -1.1817276925       -1.8478688139
 H         -0.6369524476       -1.1653290935       -1.8358307160
 H         -1.1867432465       -1.5700530489        1.8764927356
 H         -2.4163490097       -2.8887098952        3.5369398959
 H         -4.8841176815       -2.8867392035        3.5484417369
 H         -6.1280903310       -1.5666157468        1.9062722234
 H         -6.6955935119        1.1023457472        1.8379056024
 H         -9.1664768338        1.1152013569        1.8606767966
  69
  -112.095389030000       0.140062084352832      !
 N        -11.8914349928        0.1082803370        0.0923403670
 C        -10.7443700050        0.0900411866        0.0740032602
 C         -9.3327315936        0.0668493661        0.0520098482
 C         -8.6624086373       -0.9050276163       -0.6932002485
 C         -7.2829964291       -0.9246278949       -0.7077281159
 C         -6.5509714539        0.0194323557        0.0103591349
 C         -5.0739662466       -0.0058092401       -0.0103808622
 C         -4.3709677771        1.0032040936       -0.6837016047
 C         -5.0389946492        2.0414673964       -1.3850915187
 C         -4.3444497440        3.0040625189       -2.0503545263
 C         -2.9356966596        2.9803380814       -2.0684474262
 C         -2.2572688977        1.9957721614       -1.4189172773
 C         -2.9417030332        0.9807704016       -0.6997837138
 C         -2.2530044487       -0.0471146560       -0.0396838664
 C         -0.7756747874       -0.0595855478       -0.0464445170
 C         -0.0625530312        0.8983581404        0.6709240689
 C          1.3169138503        0.8937747543        0.6703647340
 C          2.0118434977       -0.0710883532       -0.0589995662
 C          3.4553815366       -0.0901762159       -0.0760906408
 N          4.1995583975       -0.9204296995       -0.7487407271
 C          5.4845308253       -0.5631874963       -0.4592334998
 C          6.7175510263       -1.1137368268       -0.9083856877
 C          6.7548873355       -2.1929948349       -1.7963167776
 C          7.9581735178       -2.7033235447       -2.2162925634
 C          9.1422283922       -2.1359434441       -1.7500682413
 C          9.1175518373       -1.0742242822       -0.8759367001
 C          7.9094252931       -0.5231442462       -0.4218094716
 C          7.8609670729        0.5981529789        0.5014430740
 C          9.0149282837        1.2067146527        1.0159405282
 C          8.9457369907        2.2679581560        1.8885876151
 C          7.7144445727        2.7794731612        2.2939102040
 C          6.5593179524        2.2140348115        1.8161631485
 C          6.6174125833        1.1322545881        0.9285142768
 C          5.4543521075        0.5121678993        0.4140703097
 O          4.1582363515        0.8142392947        0.6567354302
 C          1.3016260574       -1.0310920691       -0.7818807276
 C         -0.0768755135       -1.0246173512       -0.7701672061
 C         -2.9573409487       -1.0583141801        0.6293572869
 C         -2.2882589797       -2.0981091950        1.3273856547
 C         -2.9819080923       -3.0662992943        1.9855752762
 C         -4.3907721561       -3.0464409956        2.0000129866
 C         -5.0703002448       -2.0589594299        1.3559676907
 C         -4.3868471325       -1.0381814568        0.6437832800
 C         -7.2287055779        0.9879152806        0.7489420216
 C         -8.6077661464        1.0153821777        0.7756147240
 H         -9.2295138175       -1.6341949688       -1.2528349964
 H         -6.7586765030       -1.6727532878       -1.2843807596
 H         -6.1190345106        2.0508970329       -1.3905356233
 H         -4.8678094169        3.7867899997       -2.5791915161
 H         -2.4006219619        3.7445671671       -2.6122298987
 H         -1.1783830614        1.9666695742       -1.4503784753
 H         -0.6023029019        1.6448298422        1.2358480027
 H          1.8659593929        1.6355164223        1.2304256030
 H          5.8159264126       -2.6023611866       -2.1350356017
 H          7.9918590414       -3.5360604690       -2.9028472572
 H         10.0912377059       -2.5339823356       -2.0786395571
 H         10.0581463495       -0.6665396097       -0.5416320981
 H          9.9890883023        0.8435353774        0.7307676103
 H          9.8566482433        2.7096704282        2.2646509047
 H          7.6736492147        3.6126862475        2.9791768984
 H          5.5900691964        2.5866242739        2.1124973563
 H          1.8538609526       -1.7687751154       -1.3418174316
 H         -0.6287688499       -1.7653722452       -1.3305999505
 H         -1.2085513764       -2.1034153428        1.3326012380
 H         -2.4586102181       -3.8514061659        2.5108256982
 H         -4.9260219990       -3.8162947839        2.5359562443
 H         -6.1497374862       -2.0357682093        1.3856656904
 H         -6.6623845377        1.7175169632        1.3091512767
 H         -9.1328032346        1.7632435172        1.3516305362
  69
  -112.095334860000       0.132259165065100      !
 N        -11.8921289122       -0.1260512755       -0.1288276755
 C        -10.7455566214       -0.1022075903       -0.0967905903
 C         -9.3342641585       -0.0714527279       -0.0609725697
 C         -8.6012244017       -1.1834108726       -0.4796109084
 C         -7.2226235324       -1.1463414081       -0.4440091267
 C         -6.5527025788       -0.0078722291        0.0013827401
 C         -5.0759729388        0.0249799162        0.0218085297
 C         -4.3864571251        0.8481503224       -0.8800837171
 C         -5.0653763909        1.6541707821       -1.8317652131
 C         -4.3823046243        2.4609365037       -2.6886593333
 C         -2.9745328280        2.5114486261       -2.6496394619
 C         -2.2844432980        1.7360341043       -1.7699529505
 C         -2.9570860148        0.8691427467       -0.8687953253
 C         -2.2546893449        0.0528136797        0.0283153103
 C         -0.7762934790        0.0443371475        0.0105914671
 C         -0.0473493201        0.6454278144        1.0336080414
 C          1.3325954980        0.6304302172        1.0151165019
 C          2.0106127488        0.0012205746       -0.0288362281
 C          3.4536636152       -0.0373142185       -0.0662717361
 N          4.1735173560       -0.6477964383       -0.9633964638
 C          5.4683857934       -0.4166402190       -0.6004208867
 C          6.6840873097       -0.8413345268       -1.2061257916
 C          6.6881678467       -1.6336645497       -2.3579647748
 C          7.8754394586       -2.0325280552       -2.9201667475
 C          9.0766421366       -1.6401503371       -2.3331002120
 C          9.0846354596       -0.8604705696       -1.2000009340
 C          7.8937535328       -0.4319211081       -0.5936232761
 C          7.8792303393        0.3905914875        0.6043998383
 C          9.0521840554        0.8273951480        1.2371093338
 C          9.0163690355        1.6051946084        2.3712762097
 C          7.8010097358        1.9879122889        2.9354808604
 C          6.6281983632        1.5838097180        2.3489643882
 C          6.6521205919        0.7932955442        1.1930641503
 C          5.4699202466        0.3583678855        0.5482284611
 O          4.1826836423        0.5981222693        0.8895279733
 C          1.2834058234       -0.6040298070       -1.0553005626
 C         -0.0944335313       -0.5762760232       -1.0349300123
 C         -2.9447388753       -0.7681819405        0.9307669038
 C         -2.2606863026       -1.6169398320        1.8405130813
 C         -2.9404038152       -2.3966977839        2.7244266162
 C         -4.3490928561       -2.3731106030        2.7560742953
 C         -5.0429625765       -1.5880383959        1.8877868733
 C         -4.3743090631       -0.7748214735        0.9350093427
 C         -7.2928838829        1.0969627190        0.4188518490
 C         -8.6720912156        1.0709309326        0.3924637605
 H         -9.1197546095       -2.0637565840       -0.8301288889
 H         -6.6501353254       -2.0019692814       -0.7711974450
 H         -6.1441287982        1.6157933926       -1.8678961968
 H         -4.9143607742        3.0694523405       -3.4048598009
 H         -2.4498723953        3.1680921471       -3.3275614799
 H         -1.2055235321        1.7706537089       -1.7413996972
 H         -0.5738140811        1.1309413429        1.8428156444
 H          1.8943606791        1.1010807258        1.8077970084
 H          5.7369070801       -1.9165424417       -2.7812028682
 H          7.8834599860       -2.6454664912       -3.8090145820
 H         10.0131110615       -1.9525375808       -2.7718065574
 H         10.0375104331       -0.5821319048       -0.7790517949
 H         10.0149531766        0.5559009728        0.8351142928
 H          9.9412043237        1.9235259685        2.8295007053
 H          7.7862541529        2.5984705650        3.8257784593
 H          5.6708412390        1.8655955935        2.7614399440
 H          1.8225040827       -1.0871087583       -1.8543763042
 H         -0.6595701588       -1.0434645030       -1.8283885503
 H         -1.1812507775       -1.6329651693        1.8169328867
 H         -2.4065240727       -3.0369473047        3.4108106279
 H         -4.8727859573       -2.9851891355        3.4753649349
 H         -6.1225370215       -1.5699932156        1.9170040058
 H         -6.7754153118        1.9778479406        0.7701156743
 H         -9.2454124545        1.9259518790        0.7194529588
  69
  -112.095258380000       0.121977015315482      !
 N        -11.8935311102        0.0624420755       -0.0047680726
 C        -10.7461629710        0.0580277660       -0.0054835412
 C         -9.3340247604        0.0407181544       -0.0020381635
 C         -8.6431884873       -0.7227718944       -0.9449214200
 C         -7.2635469818       -0.7301162387       -0.9403199463
 C         -6.5516465459        0.0135037641       -0.0004794335
 C         -5.0741046004        0.0008571162       -0.0019350241
 C         -4.3751269143        0.6473554880       -1.0309792294
 C         -5.0490694656        1.3438934149       -2.0686921200
 C         -4.3603306052        1.9863085979       -3.0507790825
 C         -2.9515627774        1.9893156481       -3.0441639688
 C         -2.2675444901        1.3441153052       -2.0603673452
 C         -2.9454708576        0.6403671894       -1.0301530402
 C         -2.2517497411       -0.0252856661       -0.0077560991
 C         -0.7757459865       -0.0403734293       -0.0144115059
 C         -0.0558769880        0.6046740617        0.9893703360
 C          1.3236836028        0.5973364465        0.9814459023
 C          2.0131108719       -0.0583534548       -0.0385097752
 C          3.4563428807       -0.0691611916       -0.0734553673
 N          4.1903935814       -0.5449106485       -1.0380659850
 C          5.4794249339       -0.3322768394       -0.6438936821
 C          6.7051340022       -0.6320314959       -1.3019024658
 C          6.7281069790       -1.2356060710       -2.5627394202
 C          7.9244540129       -1.5033901065       -3.1807409873
 C          9.1157652626       -1.1687515162       -2.5400592468
 C          9.1052123051       -0.5766949489       -1.2985564730
 C          7.9045520460       -0.2864633401       -0.6322942923
 C          7.8704111444        0.3393956132        0.6789129511
 C          9.0326199233        0.6784354357        1.3872641605
 C          8.9775111336        1.2705852232        2.6279496877
 C          7.7527599254        1.5570037261        3.2279204471
 C          6.5898858974        1.2415235376        2.5710413635
 C          6.6336479286        0.6366820704        1.3084666977
 C          5.4623723619        0.2840285702        0.5970230875
 O          4.1698472315        0.4541127165        0.9589439715
 C          1.2970238117       -0.7083894679       -1.0451248890
 C         -0.0809991100       -0.6980612836       -1.0293333620
 C         -2.9534493166       -0.6773831507        1.0176003840
 C         -2.2844709342       -1.3943822894        2.0445352598
 C         -2.9761644966       -2.0275673638        3.0307646056
 C         -4.3847325137       -1.9981732967        3.0434930954
 C         -5.0654708572       -1.3423791926        2.0648042231
 C         -4.3830759714       -0.6578096481        1.0244952801
 C         -7.2496104079        0.7698450429        0.9394228598
 C         -8.6291797736        0.7893158293        0.9425758168
 H         -9.1948589874       -1.3014037812       -1.6714404786
 H         -6.7232873218       -1.3198260933       -1.6665623918
 H         -6.1289763780        1.3629736951       -2.0626653242
 H         -4.8880260007        2.5090955611       -3.8346006994
 H         -2.4197688293        2.5175452846       -3.8214269971
 H         -1.1883031523        1.3670292528       -2.0468686010
 H         -0.5900975869        1.1234414509        1.7724531182
 H          1.8770353830        1.1026319959        1.7585002712
 H          5.7838040440       -1.4764548869       -3.0257694510
 H          7.9470439184       -1.9676019341       -4.1553336579
 H         10.0592636867       -1.3753263542       -3.0240392731
 H         10.0509041433       -0.3333738553       -0.8411777441
 H         10.0020953728        0.4736483761        0.9625157695
 H          9.8945168528        1.5158564221        3.1437043531
 H          7.7230491715        2.0217162433        4.2020816319
 H          5.6254018267        1.4484319299        3.0104611568
 H          1.8447028353       -1.2121967397       -1.8254333653
 H         -0.6365694826       -1.2086992443       -1.8025827176
 H         -1.2057958307       -1.4373518858        2.0255081241
 H         -2.4514078865       -2.5672108226        3.8050642500
 H         -4.9186983249       -2.5126567915        3.8288565255
 H         -6.1456138410       -1.3416369943        2.0630190385
 H         -6.6987340332        1.3495561513        1.6658241576
 H         -9.1700335896        1.3793072265        1.6678483427
  69
  -112.095204840000       0.115258435943706      !
 N        -11.8905629208        0.1308633031       -0.1119234636
 C        -10.7438505086        0.1063504173       -0.0893519150
 C         -9.3323253830        0.0751878548       -0.0612517782
 C         -8.6215313202       -0.3379612371       -1.1896629320
 C         -7.2426115160       -0.3614425687       -1.1581712874
 C         -6.5507319554        0.0186788528       -0.0092385171
 C         -5.0739109323       -0.0070240974        0.0132043383
 C         -4.3529778035        0.9175094247       -0.7563323006
 C         -4.9988080354        1.9123354281       -1.5369880593
 C         -4.2841371324        2.7940751223       -2.2878035743
 C         -2.8760713702        2.7380148393       -2.3052582537
 C         -2.2173963123        1.8135984087       -1.5551450867
 C         -2.9240499203        0.8841276893       -0.7473132057
 C         -2.2546223824       -0.0611772843        0.0409085023
 C         -0.7753940411       -0.0885406962        0.0469458373
 C         -0.0572213518        0.8535663770        0.7784307689
 C          1.3225407113        0.8429206706        0.7721993828
 C          2.0098807888       -0.1100056321        0.0205996715
 C          3.4532917132       -0.1208461376       -0.0216838271
 N          4.1881143457       -0.8920103297       -0.7703912969
 C          5.4764328910       -0.5396986930       -0.4897728891
 C          6.7024076012       -1.0327076070       -1.0181004150
 C          6.7271215222       -2.0386761578       -1.9886772006
 C          7.9234865867       -2.4883239322       -2.4899309262
 C          9.1131361836       -1.9329517587       -2.0232217260
 C          9.1009191599       -0.9442178906       -1.0671319796
 C          7.9002434052       -0.4574348850       -0.5277144550
 C          7.8648224282        0.5858512281        0.4833719249
 C          9.0257814005        1.1694807083        1.0110946302
 C          8.9691426612        2.1552424209        1.9690774272
 C          7.7440724588        2.6119612609        2.4513063342
 C          6.5824345253        2.0690841210        1.9628621636
 C          6.6278117253        1.0639582609        0.9886159148
 C          5.4579088074        0.4686468116        0.4603226413
 O          4.1655039664        0.7366331535        0.7569878090
 C          1.2931857577       -1.0583087389       -0.7109554311
 C         -0.0853547632       -1.0479092305       -0.6912247898
 C         -2.9749236906       -0.9779495901        0.8169241851
 C         -2.3196296769       -1.9339981871        1.6369004008
 C         -3.0276586463       -2.8298904684        2.3765917978
 C         -4.4365167580       -2.8293894386        2.3350667996
 C         -5.1026167252       -1.9226235208        1.5695191681
 C         -4.4042692087       -0.9559069055        0.7988456152
 C         -7.2687737839        0.4260174014        1.1136987038
 C         -8.6479658752        0.4587047109        1.0934251408
 H         -9.1574940639       -0.6352599465       -2.0790856147
 H         -6.6870272824       -0.6817340835       -2.0274913956
 H         -6.0776193647        1.9627409975       -1.5229989540
 H         -4.7911210111        3.5440122216       -2.8767476722
 H         -2.3262131022        3.4386455090       -2.9158336905
 H         -1.1383252089        1.7713523314       -1.5631125997
 H         -0.5922892309        1.5957533574        1.3532975114
 H          1.8772720826        1.5740825007        1.3406347320
 H          5.7840714175       -2.4402883368       -2.3254313311
 H          7.9474378917       -3.2639728123       -3.2406814568
 H         10.0566030211       -2.2820148286       -2.4170792588
 H         10.0452785549       -0.5421961973       -0.7366406990
 H          9.9955095470        0.8460341249        0.6687391540
 H          9.8851764058        2.5797843766        2.3528660273
 H          7.7132837075        3.3856209376        3.2037111162
 H          5.6177999905        2.4002209254        2.3176549643
 H          1.8400797350       -1.7883065608       -1.2859294703
 H         -0.6436223527       -1.7800195469       -1.2564710815
 H         -1.2398737231       -1.9351193977        1.6613057027
 H         -2.5172182045       -3.5513848998        2.9970229045
 H         -4.9830401733       -3.5567617634        2.9169375907
 H         -6.1822048112       -1.9302596518        1.5362872560
 H         -6.7338832025        0.7251441531        2.0033073371
 H         -9.2041288808        0.7789581685        1.9622468945
  69
  -112.095152890000       0.109093319057252      !
 N        -11.8921996734        0.0005353627        0.1382895736
 C        -10.7452909651       -0.0016636143        0.1131712052
 C         -9.3337145494       -0.0012144085        0.0775183040
 C         -8.6492870103       -1.0701252494       -0.5039600342
 C         -7.2699808917       -1.0645783058       -0.5327911755
 C         -6.5515312393       -0.0000786767        0.0092752322
 C         -5.0749375395        0.0005512632       -0.0201064488
 C         -4.3951350213        0.9230561340       -0.8286894613
 C         -5.0821093461        1.8404488194       -1.6668963440
 C         -4.4049404121        2.7266086075       -2.4468723974
 C         -2.9956177659        2.7494402554       -2.4434913149
 C         -2.2982078115        1.8755434434       -1.6683908323
 C         -2.9657809458        0.9327417244       -0.8431348311
 C         -2.2559669486        0.0149261030       -0.0599372490
 C         -0.7753346342        0.0199355683       -0.0775798070
 C         -0.0629816426        0.8304018786        0.8016518467
 C          1.3171578799        0.8247956788        0.7978799601
 C          2.0091317488        0.0037116742       -0.0921819096
 C          3.4527781148       -0.0306839570       -0.1045306341
 N          4.1887818567       -0.7610917793       -0.8920870316
 C          5.4767514940       -0.4784302059       -0.5408250575
 C          6.7035681219       -0.9835358134       -1.0552983256
 C          6.7292793992       -1.9230515509       -2.0903050061
 C          7.9266911359       -2.3976670520       -2.5652382627
 C          9.1163502527       -1.9342863004       -2.0070139994
 C          9.1030164852       -1.0094096981       -0.9890574274
 C          7.9011440867       -0.4992220810       -0.4744629186
 C          7.8639930752        0.4761367547        0.6022618689
 C          9.0241230239        0.9827175705        1.2059863170
 C          8.9661148009        1.9034932218        2.2265300680
 C          7.7403901719        2.3685750420        2.6989647018
 C          6.5795189315        1.9009105309        2.1364451446
 C          6.6261805349        0.9634082633        1.0969919102
 C          5.4569816287        0.4503934978        0.4871098349
 O          4.1637550081        0.7360666720        0.7642709872
 C          1.2973614609       -0.8047030433       -0.9800681315
 C         -0.0811941002       -0.7945666506       -0.9695235476
 C         -2.9343907150       -0.9138053175        0.7386541142
 C         -2.2343152458       -1.8548081402        1.5387925456
 C         -2.9004604613       -2.7431913892        2.3247642177
 C         -4.3092279276       -2.7360581365        2.3669057989
 C         -5.0170098641       -1.8498785194        1.6146453954
 C         -4.3635777088       -0.9190177672        0.7645466195
 C         -7.2436384729        1.0644898428        0.5844868334
 C         -8.6226186293        1.0688507812        0.6237635229
 H         -9.2057603080       -1.8937345918       -0.9267814506
 H         -6.7353394785       -1.8876104844       -0.9841922424
 H         -6.1619038014        1.8195078340       -1.6830406897
 H         -4.9432324364        3.4168135311       -3.0794985746
 H         -2.4767889849        3.4614314664       -3.0679336044
 H         -1.2180826565        1.8797538665       -1.6714406744
 H         -0.6020582708        1.4635424062        1.4914690230
 H          1.8680810010        1.4514831325        1.4826930068
 H          5.7862259627       -2.2562241863       -2.4949008072
 H          7.9515191807       -3.1238786705       -3.3638394850
 H         10.0607762485       -2.3055930207       -2.3774583437
 H         10.0476073883       -0.6791431213       -0.5873644198
 H          9.9943015567        0.6513062342        0.8726234228
 H          9.8815603643        2.2701678415        2.6671489203
 H          7.7083044504        3.0907673640        3.5008861790
 H          5.6144184773        2.2420979621        2.4803084980
 H          1.8484892061       -1.4312750712       -1.6629698161
 H         -0.6360071565       -1.4210345240       -1.6528331885
 H         -1.1546000209       -1.8482433719        1.5118904301
 H         -2.3567573745       -3.4551464335        2.9277068217
 H         -4.8225641396       -3.4392535884        3.0059032921
 H         -6.0960547501       -1.8420285981        1.6603178002
 H         -6.6881074837        1.8880484590        1.0089156406
 H         -9.1583109141        1.8919760880        1.0734127112
  69
  -112.095030250000       9.581570805736037E-002 !
 N        -11.8756279877        0.1227229576       -0.3466109818
 C        -10.7308228785        0.0970823460       -0.2773891262
 C         -9.3212320771        0.0687530776       -0.1931884821
 C         -8.5763651193       -0.5650412953       -1.1892669287
 C         -7.1993039013       -0.5848638407       -1.1041107700
 C         -6.5464247884        0.0209201641       -0.0331337198
 C         -5.0676912207       -0.0007920037        0.0412574286
 C         -4.3302389774        1.0130801982       -0.5815783781
 C         -4.9665904961        2.0800019175       -1.2692209669
 C         -4.2409804835        3.0482887937       -1.8909497381
 C         -2.8324697035        3.0017226100       -1.8718584182
 C         -2.1848540629        1.9982369530       -1.2194681767
 C         -2.9018283100        0.9790336239       -0.5387729052
 C         -2.2504662068       -0.0620133631        0.1396887984
 C         -0.7740783726       -0.1058058373        0.1628965634
 C         -0.0449657787        0.8473636850        0.8703367606
 C          1.3346045165        0.8267611429        0.8605565775
 C          2.0137990376       -0.1502325767        0.1326045618
 C          3.4560612918       -0.1610577302        0.0675211336
 N          4.1812748361       -1.0017392020       -0.6129386950
 C          5.4716360468       -0.6077421112       -0.4082479284
 C          6.6893716188       -1.1412450527       -0.9159192846
 C          6.7024139043       -2.2543568229       -1.7617845988
 C          7.8904615382       -2.7417272212       -2.2472145697
 C          9.0837043341       -2.1176445635       -1.8890257792
 C          9.0830661803       -1.0231938010       -1.0560182513
 C          7.8910424991       -0.4935231542       -0.5382311122
 C          7.8676402640        0.6643435616        0.3396352856
 C          9.0323469413        1.3354949745        0.7396814479
 C          8.9871514361        2.4329516734        1.5679959437
 C          7.7703194522        2.9186277138        2.0428595698
 C          6.6055263207        2.2921301380        1.6776828338
 C          6.6390899267        1.1745912523        0.8341185379
 C          5.4648398428        0.4995819645        0.4247392228
 O          4.1774662057        0.7829744984        0.7290736092
 C          1.2874582454       -1.1169209292       -0.5649468495
 C         -0.0904896329       -1.0936771871       -0.5448026776
 C         -2.9923124678       -1.0672095231        0.7766907065
 C         -2.3673243937       -2.1151485959        1.5025875217
 C         -3.1010978276       -3.0872659402        2.1098144758
 C         -4.5085552776       -3.0717243911        2.0338387116
 C         -5.1479259891       -2.0755206914        1.3632454745
 C         -4.4204505414       -1.0393133802        0.7207084003
 C         -7.2963462248        0.6489671736        0.9580811712
 C         -8.6742074707        0.6766376417        0.8840154018
 H         -9.0839729453       -1.0329909476       -2.0199408024
 H         -6.6158971117       -1.0714736347       -1.8719567825
 H         -6.0464994338        2.1079287294       -1.2904230712
 H         -4.7373874210        3.8554680599       -2.4088896506
 H         -2.2718181199        3.7699442883       -2.3833832397
 H         -1.1058467500        1.9610248033       -1.2155025292
 H         -0.5715948874        1.6070061681        1.4300940097
 H          1.8957420864        1.5695482656        1.4071892639
 H          5.7570796156       -2.7079633605       -2.0160478825
 H          7.9053393828       -3.6004047790       -2.9016499688
 H         10.0206546058       -2.4968722475       -2.2702794716
 H         10.0298221127       -0.5717097333       -0.8059829854
 H          9.9959297513        0.9947292658        0.3966191660
 H          9.9056368663        2.9243236484        1.8535263174
 H          7.7482823035        3.7807728442        2.6923439770
 H          5.6472186224        2.6441920224        2.0295550305
 H          1.8270491356       -1.8678992235       -1.1193393216
 H         -0.6544441730       -1.8350409993       -1.0921914733
 H         -1.2895858724       -2.1246977607        1.5690923783
 H         -2.6107733166       -3.8783953012        2.6574093328
 H         -5.0736247695       -3.8543164008        2.5180567046
 H         -6.2270421944       -2.0556847643        1.3114862414
 H         -6.7889885414        1.1174436001        1.7886720084
 H         -9.2575743527        1.1648318758        1.6508435519
