66
 energy: -107.620762429795 gnorm: 0.000043951415 xtb: 6.7.1 (edcfbbe)
C            0.60326413487743        0.00255132974029       -0.00360137975841
C           -0.60519814422231        0.00212902935304       -0.00402467158565
C           -2.01572468806178        0.00148373369152       -0.00368212078598
C           -2.72047394368973       -0.28657218963111        1.16834585732338
C           -4.09989465770437       -0.29174707116330        1.16595524142053
C           -4.79927066886818        0.00001495426811       -0.00238257359171
N           -6.21462321184986       -0.00079127009346       -0.00125186596116
C           -6.92279181683846        0.94629632243565        0.73956010074043
C           -6.28810486247493        1.95222577129126        1.45828636861168
C           -7.02159532869564        2.87914127560832        2.18396717413541
C           -8.40044489300311        2.82288398351881        2.19696719073802
C           -9.05096552909093        1.84075164827948        1.46273611255166
C           -8.32415906246566        0.91654179119519        0.73632414732691
O           -9.04096321704049       -0.00888306556779        0.01131662229007
C           -8.32525574722905       -0.92882950137704       -0.72175559986501
C           -9.05334936960814       -1.85590949605482       -1.44319879592937
C           -8.40399344086450       -2.83301569346917       -2.18511407231122
C           -7.02479029427285       -2.88124406218287       -2.18491305649097
C           -6.29000909907167       -1.95141659774002       -1.46425938320376
C           -6.92378794625410       -0.95068721781609       -0.73752849610191
C           -4.10134996403613        0.29267088869356       -1.17133274229219
C           -2.72186634474707        0.28890508301069       -1.17499356248567
C            2.01388842017764        0.00278898782261       -0.00298984031706
C            2.71930222207640        0.10445080543776        1.19929829561790
C            4.09869377900651        0.11027558738587        1.19776988970961
C            4.79890462323363        0.00270891450599       -0.00147465506878
N            6.21364880792512        0.00241255610603       -0.00068502236022
C            6.92258574916260       -1.03553638880818        0.60661576979708
C            6.28895428448913       -2.12617568241189        1.19012730440303
C            7.02277546288849       -3.14019460752316        1.78752838042769
C            8.40175401665111       -3.08782195519330        1.80364867832857
C            9.05139278592644       -2.02031520084750        1.19957000737888
C            8.32405291524872       -1.00843074177956        0.60173905387324
O            9.04089509750549        0.00097614961528       -0.00059829528910
C            8.32512337349573        1.01111504558034       -0.60297314145909
C            9.05350478906814        2.02227977670457       -1.20075261638057
C            8.40495542084707        3.09045279739731       -1.80482584840952
C            7.02602821908209        3.14422985063693       -1.78874121875487
C            6.29116490160558        2.13091844297433       -1.19142193729611
C            6.92368820462455        1.03961555002862       -0.60794853601090
C            4.09997783080236       -0.10467812611373       -1.20148923070246
C            2.72058660707948       -0.09877824398175       -1.20452324904900
H           -2.17676416718236       -0.51417996832572        2.07331452739142
H           -4.64728376769903       -0.52231078952832        2.06833205166183
H           -5.21136484745432        2.01469261766896        1.44650269313183
H           -6.50122756134517        3.64676036293379        2.73624389726916
H           -8.97673709713692        3.53805091310956        2.76269980317013
H          -10.12774334199073        1.77807029962235        1.43719672670328
H          -10.13019202311995       -1.79948710174272       -1.40761589621819
H           -8.98132302531784       -3.55056445206048       -2.74675412737316
H           -6.50506307232605       -3.64476466851582       -2.74343814227898
H           -5.21289043646561       -2.00790314724475       -1.46244739082796
H           -4.64976856976680        0.52307212397460       -2.07311836046768
H           -2.17926986566081        0.51716420858352       -2.08046916434051
H            2.17637146759039        0.18827428699376        2.12910396308122
H            4.64517721201449        0.19879071581284        2.12547040420584
H            5.21227895166941       -2.18659377363968        1.17268859135325
H            6.50248605237449       -3.97180532652081        2.23780726929688
H            8.97854902482180       -3.87078079577279        2.27044089410314
H           10.12818223411623       -1.95675257989463        1.17799093007348
H           10.13022888606978        1.95762787855613       -1.17915492941206
H            8.98255684241629        3.87283989535332       -2.27157945665448
H            6.50661022095665        3.97640538537906       -2.23898593690682
H            5.21454579645660        2.19238150006461       -1.17400935366792
H            4.64745789457657       -0.19320338317337       -2.12860170579931
H            2.17865177669575       -0.18258136517370       -2.13491257067206
