66
 energy: -107.620869843293 gnorm: 0.000056811253 xtb: 6.7.1 (edcfbbe)
C            0.60472098405100        0.00193997813553        0.03030925487024
C           -0.60379649385953       -0.00008852751583        0.03034334033412
C           -2.01399844125918       -0.00387123008552        0.02666921567384
C           -2.72495530761494        0.53539321026567        1.10238926911786
C           -4.10438897308207        0.52834791345106        1.09683721812453
C           -4.79736515455147       -0.01012861223620        0.01556362030240
N           -6.21251592936960       -0.01247250297802        0.00902810737965
C           -6.92310733709409        1.18693423614343       -0.05381092519577
C           -6.29038198668161        2.42068452389407       -0.14784198914136
C           -7.02626483393732        3.59482834930188       -0.20770705026864
C           -8.40558168634829        3.55635245647958       -0.18362013019158
C           -9.05374188817433        2.33063086572562       -0.11739815142082
C           -8.32450354541806        1.15800888983751       -0.05982848430399
O           -9.03870598562966       -0.01872735848688       -0.02375202593329
C           -8.32039117985105       -1.19238425258927        0.02719181231513
C           -9.04538596725461       -2.36836729335216        0.06645203787947
C           -8.39326683866858       -3.59118947618266        0.14634410807168
C           -7.01473424922504       -3.62339789526895        0.20316842666283
C           -6.28304086954086       -2.44589021857788        0.16141280578990
C           -6.91915028566740       -1.21495697661115        0.05381259586039
C           -4.09334381192376       -0.54609721629002       -1.05989052132469
C           -2.71401955404817       -0.54687877474954       -1.05447674166788
C            2.01491069712781        0.00480099895779        0.02686446006671
C            2.71730993049083       -0.49736864971216       -1.07239360286211
C            4.09662441499030       -0.49114827091436       -1.07688778712917
C            4.79784964499171        0.01080766501643        0.01659801467413
N            6.21322322080392        0.01372833669345        0.01046089530416
C            6.91958570888098        1.21645762339621       -0.02605645918612
C            6.28222939024092        2.44982336476594       -0.08680443216699
C            7.01406242958261        3.62753305572675       -0.12136091588031
C            8.39359764472299        3.59300141775884       -0.10468259917251
C            9.04613178255000        2.36822223471063       -0.07092235339507
C            8.32104901105096        1.19213282669748       -0.03851244437303
O            9.03899579574271        0.01699548922169       -0.03381652076040
C            8.32440382974136       -1.15987414457637       -0.00920461892420
C            9.05253576365992       -2.33450624158949       -0.00225237870018
C            8.40381680033353       -3.56069159738656        0.04982109033580
C            7.02559356351675       -3.59818036409455        0.11104231987831
C            6.29067866201487       -2.42195436696041        0.10174338413015
C            6.92335830381056       -1.18720650330694        0.02233186515401
C            4.10270180283151        0.50940371385732        1.11535105434076
C            2.72317985011584        0.50960166436000        1.12097593244289
H           -2.18595420977055        0.95177254035011        1.94050065080754
H           -4.65685826541477        0.93874824871054        1.92950985454495
H           -5.21311267319112        2.46371739430125       -0.18028576345138
H           -6.50734068883786        4.53882583460089       -0.27597729922007
H           -8.98386965177289        4.46601178999417       -0.22541175325401
H          -10.13054802764003        2.26337764957955       -0.11382312502307
H          -10.12211319947529       -2.30607532979652        0.03763270219571
H           -8.96817699758144       -4.50353782217791        0.17354612959267
H           -6.49328682922902       -4.56512649540064        0.28259955284283
H           -5.20660880044382       -2.48391298680565        0.21893431161512
H           -4.63734269555614       -0.95925049288924       -1.89679891886850
H           -2.16639337456309       -0.96082655959001       -1.88817567318233
H            2.17159153417357       -0.88421226452862       -1.92023040390955
H            4.64287753148241       -0.87404195635963       -1.92669690171734
H            5.20465023960805        2.48969632873059       -0.11306431601104
H            6.49182365823136        4.57121788882330       -0.16394346212133
H            8.96875022815818        4.50533337098612       -0.12713224207267
H           10.12317245490791        2.30464941848188       -0.07378801902473
H           10.12898831520872       -2.26879027597001       -0.03374625519596
H            8.98119280861916       -4.47188804765256        0.05197015789534
H            6.50697832430427       -4.54305082093743        0.16878877541218
H            5.21452423459118       -2.46386795391240        0.16204163957195
H            4.65339703911939        0.89421993053258        1.96139602305858
H            2.18212769285928        0.89407708559561        1.97288416685430
