58
 energy: -102.219079323858 gnorm: 0.000080452915 xtb: 6.7.1 (edcfbbe)
F            5.21179676058451        1.97654155291359       -2.47312704191374
B            5.00404453799648        1.72451371562617       -1.11113885479659
F            5.19516620560145        2.94667461067707       -0.43471532193145
O            5.97484691703414        0.75207265447859       -0.64627111489984
C            5.64318600420714       -0.30880498725283        0.09495952641984
C            6.76693563187191       -1.10009811173848        0.57789013200650
C            6.61482202056916       -2.39067095287788        1.10377376795318
C            7.71174087758604       -3.10291971898789        1.54414980308725
C            8.98450896832744       -2.55492649819018        1.47382862826328
C            9.15218140757717       -1.28149647274736        0.94869763722317
C            8.06122559608235       -0.56443496682237        0.50449663861405
C            4.32714900696782       -0.61366552324909        0.38179726219416
C            3.25340488353094        0.15363841870970       -0.11232150207433
C            1.91896829587345       -0.15227381808166        0.12084536614119
C            0.90303899024338        0.63195824203063       -0.43796534775991
C           -0.49749726575949        0.40105024243998       -0.27508395927684
C           -1.41857949168346        1.25853031634046       -0.92142314848696
C           -2.77059925532685        1.07797925129168       -0.80291002106203
C           -3.27288485191373        0.01729461894984       -0.03641729592570
N           -4.66656780843938       -0.18327763736826        0.07757257831860
C           -5.46583765322735        0.78046332823652        0.66500192083718
C           -4.94073706092935        1.95174851256010        1.22023422935245
C           -5.77564049605790        2.89007556973365        1.79061520907443
C           -7.15038616409401        2.68351091982357        1.83470457332017
C           -7.68901152549541        1.51826169653484        1.32338412741922
C           -6.85850380748517        0.56511888084355        0.74866971505706
O           -7.43628846821020       -0.57549421223091        0.29220113992961
C           -6.64210903405255       -1.52102465920272       -0.27203625858783
C           -7.25444877085559       -2.67818788700017       -0.73542474338370
C           -6.49947402651049       -3.65960342255285       -1.34860736691585
C           -5.13126112080663       -3.47706951831144       -1.51906099229968
C           -4.51131418671375       -2.33328393164908       -1.06044276487662
C           -5.24829272926518       -1.34142051224902       -0.40542085064914
C           -2.38066448186184       -0.84434704494755        0.61180410870708
C           -1.02653388468350       -0.65353570725996        0.50211470842380
N            1.26249391558567        1.72422039080836       -1.21437137699852
C            2.50704708613988        1.97137915762827       -1.38918297682574
N            3.54483102832980        1.26549855202292       -0.89546171003401
H            5.63885240076131       -2.84688324339910        1.14795041542785
H            7.57660510207446       -4.09795255752010        1.94259990365523
H            9.83868777930545       -3.11691150649554        1.82079834614894
H           10.13935050914970       -0.84683188920672        0.88632594601343
H            8.18065203496612        0.42789170165398        0.09594881332668
H            4.08994624683435       -1.45695659791974        1.00581559716817
H            1.69719966391744       -1.00666293507820        0.73873133100773
H           -1.01605007853957        2.05655715856547       -1.52404039608538
H           -3.45731124968702        1.73047000878876       -1.32171372576343
H           -3.87535327821202        2.11313058283665        1.20391221423665
H           -5.35132459142441        3.78847402971075        2.21003275107989
H           -7.79689661955071        3.42358662210439        2.27816517445462
H           -8.74762686940859        1.31801984242488        1.36124475174502
H           -8.32013530844116       -2.77897996654311       -0.60782772320292
H           -6.97633282809647       -4.55820800933942       -1.70562966205402
H           -4.54452888235885       -4.23142129386778       -2.01882788922378
H           -3.45379111303847       -2.19206058284018       -1.21207308949941
H           -2.76881891915476       -1.64631003509856        1.22264420195944
H           -0.36363111215888       -1.31980816635084        1.02939090802506
H            2.78197510326230        2.82638967298951       -1.99326386087420
