  67
       -106.99089132
 C          8.9813019922        3.3096001812       -0.7084292134
 C          9.0585362493        1.9976274124       -1.1476318168
 C          7.9951492916        1.1352407439       -0.9593265621
 C          6.8398217988        1.5798161742       -0.3199367668
 C          5.6937696400        0.7028465611       -0.1234949100
 N          4.4239165296        1.1886765605       -0.2179537406
 C          3.6354352348        0.1615168095       -0.0570598013
 C          2.1902065294        0.1998712344       -0.0820734759
 C          1.5308822695        1.4036785307       -0.3490317095
 C          0.1526016174        1.4080491871       -0.3644882281
 C         -0.5433219596        0.2230936542       -0.1109245333
 C         -2.0071204838        0.1728634009       -0.0979611424
 C         -2.7491393154        1.2249385432        0.4379531226
 C         -4.1275197040        1.1774000955        0.4658412885
 C         -4.8009473299        0.0682530190       -0.0407151763
 N         -6.1983594740        0.0135649634       -0.0044917102
 C         -7.0247119928       -0.3049753714       -1.0652631100
 C         -6.7018690984       -0.5856405690       -2.3851195339
 C         -7.7377299233       -0.8483013780       -3.2610053320
 C         -9.0667194967       -0.8244761496       -2.8445249218
 C         -9.3956895872       -0.5192109795       -1.5391237317
 C         -8.3718082261       -0.2520506060       -0.6399934661
 C         -8.3481146083        0.1121179158        0.7490944330
 C         -9.3391242292        0.3014799083        1.7032117958
 C         -8.9640853171        0.6328334917        2.9897246855
 C         -7.6200879373        0.7584420682        3.3336231717
 C         -6.6162810128        0.5750641716        2.4019379515
 C         -6.9879722078        0.2691489525        1.1005996977
 C         -4.0677548195       -0.9861757832       -0.5803521437
 C         -2.6895152831       -0.9308020562       -0.6088319084
 C          0.2238608158       -0.9172119321        0.1459197257
 N          1.5377483484       -0.9359892165        0.1589561432
 O          4.2994703938       -0.9863516246        0.1454928689
 C          5.6141071713       -0.6603442108        0.1173813319
 C          6.5916061760       -1.7017757046        0.3696304970
 C          6.2741169223       -3.0262906656        0.0651041834
 C          7.1884958195       -4.0337731644        0.3037166717
 C          8.4242411156       -3.7368275791        0.8550107881
 C          8.7374117718       -2.4260252244        1.1793134558
 C          7.8299534555       -1.4117184312        0.9435913920
 C          6.7595607233        2.9058935316        0.0984998003
 C          7.8272446882        3.7626000943       -0.0908598354
 H          9.8161771444        3.9789339536       -0.8557158704
 H          9.9511108063        1.6459284226       -1.6447557473
 H          8.0514761237        0.1176003234       -1.3170518759
 H          2.1132074381        2.2893384311       -0.5421887208
 H         -0.3886752695        2.3153786876       -0.5916158816
 H         -2.2390613154        2.0826565138        0.8510225953
 H         -4.6925688787        2.0047442686        0.8683530174
 H         -5.6766834046       -0.5884894513       -2.7235626162
 H         -7.5114680743       -1.0728759559       -4.2931101878
 H         -9.8474145760       -1.0386078789       -3.5591750263
 H        -10.4262920759       -0.4828160152       -1.2199123916
 H        -10.3797929614        0.1860387980        1.4403142288
 H         -9.7189270843        0.7875469541        3.7462523702
 H         -7.3558563503        1.0006478602        4.3525434087
 H         -5.5774443901        0.6552783549        2.6846615086
 H         -4.5851571307       -1.8540846454       -0.9606664580
 H         -2.1331138844       -1.7476916902       -1.0436236385
 H         -0.2527104400       -1.8618509895        0.3741853335
 H          5.3087123739       -3.2515383882       -0.3626433902
 H          6.9367126068       -5.0552939273        0.0588141345
 H          9.1392180025       -4.5250573951        1.0383612278
 H          9.6940789583       -2.1935993180        1.6237928818
 H          8.0683607671       -0.3947056865        1.2150708812
 H          5.8523162894        3.2468660491        0.5732754591
 H          7.7597561347        4.7880239791        0.2423738806
