  67
  -106.542897764300       0.495155090486590      !
 C          8.9813019922        3.3096001812       -0.7084292134
 C          9.0585362493        1.9976274124       -1.1476318168
 C          7.9951492916        1.1352407439       -0.9593265621
 C          6.8398217988        1.5798161742       -0.3199367668
 C          5.6937696400        0.7028465611       -0.1234949100
 N          4.4239165296        1.1886765605       -0.2179537406
 C          3.6354352348        0.1615168095       -0.0570598013
 C          2.1902065294        0.1998712344       -0.0820734759
 C          1.5308822695        1.4036785307       -0.3490317095
 C          0.1526016174        1.4080491871       -0.3644882281
 C         -0.5433219596        0.2230936542       -0.1109245333
 C         -2.0071204838        0.1728634009       -0.0979611424
 C         -2.7491393154        1.2249385432        0.4379531226
 C         -4.1275197040        1.1774000955        0.4658412885
 C         -4.8009473299        0.0682530190       -0.0407151763
 N         -6.1983594740        0.0135649634       -0.0044917102
 C         -7.0247119928       -0.3049753714       -1.0652631100
 C         -6.7018690984       -0.5856405690       -2.3851195339
 C         -7.7377299233       -0.8483013780       -3.2610053320
 C         -9.0667194967       -0.8244761496       -2.8445249218
 C         -9.3956895872       -0.5192109795       -1.5391237317
 C         -8.3718082261       -0.2520506060       -0.6399934661
 C         -8.3481146083        0.1121179158        0.7490944330
 C         -9.3391242292        0.3014799083        1.7032117958
 C         -8.9640853171        0.6328334917        2.9897246855
 C         -7.6200879373        0.7584420682        3.3336231717
 C         -6.6162810128        0.5750641716        2.4019379515
 C         -6.9879722078        0.2691489525        1.1005996977
 C         -4.0677548195       -0.9861757832       -0.5803521437
 C         -2.6895152831       -0.9308020562       -0.6088319084
 C          0.2238608158       -0.9172119321        0.1459197257
 N          1.5377483484       -0.9359892165        0.1589561432
 O          4.2994703938       -0.9863516246        0.1454928689
 C          5.6141071713       -0.6603442108        0.1173813319
 C          6.5916061760       -1.7017757046        0.3696304970
 C          6.2741169223       -3.0262906656        0.0651041834
 C          7.1884958195       -4.0337731644        0.3037166717
 C          8.4242411156       -3.7368275791        0.8550107881
 C          8.7374117718       -2.4260252244        1.1793134558
 C          7.8299534555       -1.4117184312        0.9435913920
 C          6.7595607233        2.9058935316        0.0984998003
 C          7.8272446882        3.7626000943       -0.0908598354
 H          9.8161771444        3.9789339536       -0.8557158704
 H          9.9511108063        1.6459284226       -1.6447557473
 H          8.0514761237        0.1176003234       -1.3170518759
 H          2.1132074381        2.2893384311       -0.5421887208
 H         -0.3886752695        2.3153786876       -0.5916158816
 H         -2.2390613154        2.0826565138        0.8510225953
 H         -4.6925688787        2.0047442686        0.8683530174
 H         -5.6766834046       -0.5884894513       -2.7235626162
 H         -7.5114680743       -1.0728759559       -4.2931101878
 H         -9.8474145760       -1.0386078789       -3.5591750263
 H        -10.4262920759       -0.4828160152       -1.2199123916
 H        -10.3797929614        0.1860387980        1.4403142288
 H         -9.7189270843        0.7875469541        3.7462523702
 H         -7.3558563503        1.0006478602        4.3525434087
 H         -5.5774443901        0.6552783549        2.6846615086
 H         -4.5851571307       -1.8540846454       -0.9606664580
 H         -2.1331138844       -1.7476916902       -1.0436236385
 H         -0.2527104400       -1.8618509895        0.3741853335
 H          5.3087123739       -3.2515383882       -0.3626433902
 H          6.9367126068       -5.0552939273        0.0588141345
 H          9.1392180025       -4.5250573951        1.0383612278
 H          9.6940789583       -2.1935993180        1.6237928818
 H          8.0683607671       -0.3947056865        1.2150708812
 H          5.8523162894        3.2468660491        0.5732754591
 H          7.7597561347        4.7880239791        0.2423738806
  67
  -106.542562759700       0.347363189438783      !
 C          9.0387631873        3.2827013486       -0.4599962414
 C          9.1505679203        1.9611296867       -0.8614060525
 C          8.0665237372        1.1090743444       -0.7665111911
 C          6.8546580430        1.5740275706       -0.2599204278
 C          5.6890615977        0.7070651775       -0.1582809998
 N          4.4359616186        1.1970441058       -0.3768099870
 C          3.6296562795        0.1771550687       -0.2670808314
 C          2.1894326200        0.2213764343       -0.3867007426
 C          1.5457301595        1.4328628150       -0.6569075592
 C          0.1679185457        1.4481077901       -0.7030314578
 C         -0.5419038712        0.2647152186       -0.4837144590
 C         -2.0055962189        0.2288455885       -0.4400472274
 C         -2.7153163478        1.2630167587        0.1693659018
 C         -4.0887838869        1.2074291474        0.2831647503
 C         -4.7889786885        0.1089204348       -0.2099724292
 N         -6.1761513730        0.0299199707       -0.0449552005
 C         -7.1028522838       -0.2667753628       -1.0252574579
 C         -6.9161473328       -0.4804049879       -2.3833278254
 C         -8.0335192266       -0.7338385106       -3.1558784225
 C         -9.3105845599       -0.7666066755       -2.6003239841
 C         -9.5050580227       -0.5304897436       -1.2541585182
 C         -8.3974920380       -0.2738260866       -0.4571056239
 C         -8.2335332325        0.0243568579        0.9382498472
 C         -9.1193621288        0.1335588612        2.0021174043
 C         -8.6153785584        0.4113237266        3.2569115145
 C         -7.2457617152        0.5634075116        3.4607019337
 C         -6.3450193568        0.4597150777        2.4180902714
 C         -6.8480484714        0.2067451025        1.1499801180
 C         -4.0910408587       -0.9148941148       -0.8461251151
 C         -2.7171215915       -0.8526461175       -0.9580543573
 C          0.2114310452       -0.8904585030       -0.2529387342
 N          1.5239469503       -0.9178759265       -0.2029476096
 O          4.2655045055       -0.9695743493        0.0171011624
 C          5.5788228947       -0.6501314814        0.1037165583
 C          6.5175243657       -1.6878164467        0.4858237061
 C          6.2202920015       -3.0202958891        0.1965262325
 C          7.0917370420       -4.0248710294        0.5700812715
 C          8.2636274979       -3.7166569181        1.2415211832
 C          8.5555799338       -2.3967960309        1.5481589875
 C          7.6904810056       -1.3854557015        1.1784326669
 C          6.7420406766        2.9094815072        0.1197293406
 C          7.8303440432        3.7557745074        0.0243731347
 H          9.8903374569        3.9432907414       -0.5314887076
 H         10.0875772173        1.5930866562       -1.2532869173
 H          8.1516878414        0.0835970435       -1.0948948945
 H          2.1382072953        2.3184777343       -0.8169264313
 H         -0.3620381491        2.3649405476       -0.9184362828
 H         -2.1817950528        2.1076405623        0.5796565613
 H         -4.6296942576        2.0155855201        0.7522706114
 H         -5.9329635672       -0.4386745556       -2.8274954627
 H         -7.9140580155       -0.9073437306       -4.2152151472
 H        -10.1579984504       -0.9720965007       -3.2372882202
 H        -10.4958325471       -0.5404954766       -0.8255159028
 H        -10.1790274908       -0.0020234613        1.8467571015
 H         -9.2870213770        0.5029177625        4.0974672489
 H         -6.8785066639        0.7625446250        4.4567188546
 H         -5.2840533583        0.5594131680        2.5913545787
 H         -4.6299516924       -1.7690275230       -1.2279176809
 H         -2.1870956052       -1.6501463744       -1.4571012713
 H         -0.2769123946       -1.8387902638       -0.0691071859
 H          5.3033524443       -3.2545014272       -0.3230219102
 H          6.8561458441       -5.0529322740        0.3373455930
 H          8.9452743357       -4.5026927151        1.5306953791
 H          9.4608010989       -2.1548269657        2.0852933964
 H          7.9096285594       -0.3607723652        1.4370278721
 H          5.7930158060        3.2658172172        0.4895436547
 H          7.7369925987        4.7883356110        0.3278754727
  67
  -106.541262175500       8.771556789340183E-002 !
 C          9.0628131634        3.2535135181       -0.1198882577
 C          9.2152341638        1.9076560876       -0.4123814380
 C          8.1155473335        1.0710235269       -0.4435801250
 C          6.8454267154        1.5755514340       -0.1711760716
 C          5.6641796318        0.7258624423       -0.1942118028
 N          4.4485216645        1.2284915708       -0.5557817720
 C          3.6204092379        0.2215452959       -0.5172508313
 C          2.1933449852        0.2749292673       -0.7427484659
 C          1.5639186847        1.4876169863       -1.0381729153
 C          0.1867881261        1.5105184007       -1.1108657538
 C         -0.5338220071        0.3322592277       -0.9005763759
 C         -1.9955354711        0.3053002261       -0.8118792922
 C         -2.6680346850        1.3267685143       -0.1416238753
 C         -4.0282032183        1.2539201704        0.0743754316
 C         -4.7507777603        0.1519686757       -0.3766451895
 N         -6.1121368654        0.0387907886       -0.0724528104
 C         -7.1346005425       -0.2556539289       -0.9519725702
 C         -7.0963703449       -0.4155777914       -2.3295366943
 C         -8.2864325170       -0.6786863121       -2.9807920331
 C         -9.4905829128       -0.7734426563       -2.2865307511
 C         -9.5377843821       -0.5937145522       -0.9185275025
 C         -8.3549421460       -0.3289230344       -0.2414040026
 C         -8.0411637485       -0.0787108505        1.1377512810
 C         -8.8000671518       -0.0452658475        2.3004520894
 C         -8.1623835905        0.1991173835        3.5002284674
 C         -6.7840228870        0.3942266416        3.5521102537
 C         -6.0080662261        0.3666249523        2.4092399394
 C         -6.6469911136        0.1449922582        1.1977659680
 C         -4.0965945284       -0.8465442939       -1.0940540071
 C         -2.7351494431       -0.7685025685       -1.3058345519
 C          0.2088712970       -0.8320742906       -0.6804142153
 N          1.5187465801       -0.8648490669       -0.5968710210
 O          4.2055888780       -0.9288890556       -0.1510775506
 C          5.5052803503       -0.6252445458        0.0748115715
 C          6.3673119321       -1.6748094262        0.5870127038
 C          6.1013806444       -3.0015400475        0.2466458268
 C          6.8853988307       -4.0204239610        0.7521521908
 C          7.9356075596       -3.7315840637        1.6081631514
 C          8.1939333995       -2.4169850529        1.9636443637
 C          7.4167387256       -1.3912266480        1.4612972560
 C          6.6961597939        2.9345997097        0.0979821151
 C          7.7995480842        3.7657740813        0.1267567263
 H          9.9261827824        3.9019782460       -0.0919287738
 H         10.1970741990        1.5083189197       -0.6214193994
 H          8.2361277758        0.0267408874       -0.6912513175
 H          2.1634725852        2.3711727350       -1.1827926468
 H         -0.3341880994        2.4312852981       -1.3317855246
 H         -2.1122954273        2.1692726724        0.2427333953
 H         -4.5404289831        2.0460947021        0.5996741932
 H         -6.1704195730       -0.3276349608       -2.8779810993
 H         -8.2834448437       -0.8107935878       -4.0527748787
 H        -10.3988249200       -0.9827585989       -2.8318223714
 H        -10.4727484441       -0.6528836563       -0.3819985399
 H         -9.8656447099       -0.2142081768        2.2624962115
 H         -8.7339784410        0.2301157690        4.4159012031
 H         -6.3098779072        0.5665320061        4.5071808337
 H         -4.9378683098        0.4990631240        2.4629728604
 H         -4.6559973061       -1.6972561828       -1.4534819339
 H         -2.2362444443       -1.5516053862       -1.8570427891
 H         -0.2876455197       -1.7810153742       -0.5239199326
 H          5.2768353187       -3.2203860900       -0.4150340926
 H          6.6744158791       -5.0442784629        0.4806444144
 H          8.5469011932       -4.5290466283        2.0039332167
 H          9.0027221223       -2.1904926092        2.6426873810
 H          7.6065568442       -0.3699212577        1.7550706351
 H          5.7058207530        3.3196096057        0.2856347185
 H          7.6758522803        4.8168289314        0.3438021378
  67
  -106.540098186000       2.559435225789531E-002 !
 C          8.7848643040        3.3210094030        1.3092577364
 C          7.5898486521        3.3337236265        2.0099931840
 C          6.5790607614        2.4534190724        1.6747226802
 C          6.7584793396        1.5407904708        0.6372798708
 C          5.6653216513        0.6418489650        0.2961967517
 N          4.3715618883        1.0341265579        0.4678081539
 C          3.6356252501        0.0616324787        0.0198742454
 C          2.1906754915       -0.0040824980       -0.0189121355
 C          1.5467276309       -1.1266681172       -0.5499737556
 C          0.1679964113       -1.1481357227       -0.5738433963
 C         -0.5460528648       -0.0598822972       -0.0689687530
 C         -2.0099032832       -0.0328465800       -0.0620235009
 C         -2.7039531338        1.1464140176       -0.3314956698
 C         -4.0831190109        1.1724431368       -0.3246559129
 C         -4.8057444888        0.0188419800       -0.0275359735
 N         -6.2039144672        0.0449705236       -0.0056268005
 C         -7.0402547092       -0.8583559594       -0.6334976313
 C         -6.7269990799       -1.9319373097       -1.4546594709
 C         -7.7708988878       -2.6690483473       -1.9805354544
 C         -9.0985108557       -2.3464338729       -1.7092778669
 C         -9.4171917849       -1.2625007039       -0.9160321782
 C         -8.3851130706       -0.5068313559       -0.3759488745
 C         -8.3495535166        0.6651337486        0.4535057872
 C         -9.3346100483        1.4505307002        1.0374439883
 C         -8.9496654762        2.5211650768        1.8191759798
 C         -7.6024661513        2.8017711522        2.0352664653
 C         -6.6044862460        2.0347502721        1.4649844439
 C         -6.9850006462        0.9737578402        0.6559275295
 C         -4.1199342759       -1.1614909164        0.2501422197
 C         -2.7410673927       -1.1855757929        0.2229582813
 C          0.2061090144        1.0029801926        0.4440248183
 N          1.5180543848        1.0357559801        0.4694699855
 O          4.3628389098       -0.9781729585       -0.4467983130
 C          5.6613294905       -0.6256811485       -0.2630689960
 C          6.6920953454       -1.5857547565       -0.6092116550
 C          7.8964875978       -1.6368077004        0.0938227451
 C          8.8564332932       -2.5700515534       -0.2454304001
 C          8.6303932904       -3.4654372971       -1.2794255855
 C          7.4300590473       -3.4314442523       -1.9700378947
 C          6.4641409226       -2.5017705731       -1.6369169157
 C          7.9538210289        1.5469163246       -0.0785053329
 C          8.9599571930        2.4315739561        0.2613428628
 H          9.5749692086        4.0090173317        1.5720911634
 H          7.4463748878        4.0346289845        2.8195441714
 H          5.6383044575        2.4571720377        2.2028042458
 H          2.1268973271       -1.9505547336       -0.9350735917
 H         -0.3568320738       -1.9921975243       -0.9979390964
 H         -2.1553372342        2.0428215858       -0.5790390828
 H         -4.6112770962        2.0825087581       -0.5663574827
 H         -5.7023486129       -2.1792644341       -1.6881361498
 H         -7.5518604116       -3.5122735426       -2.6189220327
 H         -9.8858593170       -2.9497856094       -2.1360203607
 H        -10.4460887540       -1.0009277928       -0.7201638255
 H        -10.3782747458        1.2212666526        0.8837900003
 H         -9.6993759959        3.1467658012        2.2802717698
 H         -7.3310354052        3.6353509952        2.6660664316
 H         -5.5640154908        2.2496245491        1.6564158624
 H         -4.6748237175       -2.0515862782        0.5059270441
 H         -2.2216679752       -2.1021573605        0.4608520269
 H         -0.2848911715        1.8658127866        0.8751083896
 H          8.0663775036       -0.9517660712        0.9105362198
 H          9.7861948035       -2.6036169016        0.3033969318
 H          9.3856889031       -4.1910598019       -1.5420287500
 H          7.2466574822       -4.1318120349       -2.7718259925
 H          5.5278892870       -2.4699440087       -2.1742910469
 H          8.0862986569        0.8692348876       -0.9092147951
 H          9.8837243596        2.4320746964       -0.2992787184
  67
  -106.540008176700       2.326905427907268E-002 !
 C          8.6894298508        3.3009425734        1.5331901104
 C          8.9045082899        1.9341203023        1.6054597707
 C          7.9295732849        1.0502551805        1.1820863064
 C          6.7251213067        1.5315004912        0.6733545142
 C          5.6554184666        0.6401364597        0.2501150631
 N          4.3550479808        1.0297083339        0.3712017565
 C          3.6356521145        0.0151997727       -0.0032135792
 C          2.1916202920       -0.0624311352       -0.0452345714
 C          1.5489563117       -1.2622739251       -0.3667372401
 C          0.1699246228       -1.2864797985       -0.3934217865
 C         -0.5439646349       -0.1226773619       -0.1029525430
 C         -2.0075270582       -0.0875372880       -0.1010222820
 C         -2.6943934892        1.0229376310       -0.5909246783
 C         -4.0729710370        1.0658915030       -0.5733130180
 C         -4.8010237122        0.0018509733       -0.0454546730
 N         -6.1981535300        0.0517042210       -0.0043814499
 C         -7.0562005631       -0.9424758887       -0.4337894352
 C         -6.7699494264       -2.1526349650       -1.0488830211
 C         -7.8315958461       -2.9611073909       -1.4078923589
 C         -9.1499448299       -2.5780522076       -1.1725231553
 C         -9.4418001965       -1.3632627826       -0.5850793140
 C         -8.3916790721       -0.5333782464       -0.2157645774
 C         -8.3269331870        0.7715302886        0.3809178383
 C         -9.2909761619        1.6630857681        0.8325078320
 C         -8.8785545415        2.8559377004        1.3916823543
 C         -7.5243457259        3.1569690297        1.5178509525
 C         -6.5467642523        2.2857629522        1.0764561940
 C         -6.9556008924        1.0966190968        0.4901578545
 C         -4.1226182056       -1.1110354127        0.4462879302
 C         -2.7444511774       -1.1558212354        0.4089045555
 C          0.2073475352        1.0168059540        0.2067246339
 N          1.5187034343        1.0516579101        0.2356383554
 O          4.3796001242       -1.0494458695       -0.3780949386
 C          5.6722487861       -0.6570209069       -0.2366684995
 C          6.7194253292       -1.5698172673       -0.6553309030
 C          7.9123454979       -1.0922155101       -1.1997243748
 C          8.8857159839       -1.9782067802       -1.6181556172
 C          8.6849675792       -3.3452200720       -1.5055074198
 C          7.4976846530       -3.8260367396       -0.9783572923
 C          6.5177288145       -2.9469103200       -0.5592597285
 C          6.5064352029        2.9071403936        0.6225139180
 C          7.4858435907        3.7844332353        1.0459871387
 H          9.4552970005        3.9867660607        1.8647125519
 H          9.8358744687        1.5541872207        1.9997474033
 H          8.0935693362       -0.0144503365        1.2608565945
 H          2.1302985143       -2.1425756347       -0.5924205287
 H         -0.3550160512       -2.1936931593       -0.6573506451
 H         -2.1406429277        1.8466682271       -1.0160286624
 H         -4.5964836224        1.9174360888       -0.9812667257
 H         -5.7527248633       -2.4507875275       -1.2538132571
 H         -7.6341046259       -3.9098836558       -1.8848016683
 H         -9.9518311219       -3.2398007421       -1.4641966618
 H        -10.4638573101       -1.0583258755       -0.4182664785
 H        -10.3398688028        1.4212425319        0.7502002096
 H         -9.6118890203        3.5644711765        1.7469552510
 H         -7.2311069495        4.0906064932        1.9748226106
 H         -5.5001352215        2.5209009328        1.1978233878
 H         -4.6826120769       -1.9281314753        0.8757994920
 H         -2.2295733440       -2.0148336964        0.8133414240
 H         -0.2849323057        1.9464258315        0.4613775017
 H          8.0614462225       -0.0283438256       -1.3045588864
 H          9.8056683600       -1.6005999973       -2.0394333534
 H          9.4506826027       -4.0334066743       -1.8312711215
 H          7.3357453599       -4.8905895401       -0.8925310016
 H          5.5913443387       -3.3178988785       -0.1463370125
 H          5.5584100890        3.2649659452        0.2525448524
 H          7.3109251522        4.8493797786        0.9992272782
  67
  -106.539906830700       2.090274564425672E-002 !
 C          8.8041219262        3.5313541966       -0.3013135881
 C          7.6251539001        3.8472398779        0.3539748287
 C          6.6047208575        2.9188870657        0.4328895229
 C          6.7594383301        1.6561181908       -0.1346771124
 C          5.6615717151        0.7038762800       -0.0410960016
 N          4.3690341828        1.1352647110       -0.0538767003
 C          3.6307822571        0.0672195447       -0.0075758603
 C          2.1848944588       -0.0047455583        0.0071717877
 C          1.5400768718       -1.2184254928        0.2672642945
 C          0.1608657960       -1.2448787722        0.2758300865
 C         -0.5492981245       -0.0720839450        0.0169271565
 C         -2.0144631314       -0.0436914365        0.0083693295
 C         -2.7058652078        0.6475850913       -0.9850237898
 C         -4.0854878385        0.6745954820       -0.9955412209
 C         -4.8057572311        0.0163955396       -0.0018536577
 N         -6.2055276748        0.0461242246       -0.0053442440
 C         -7.0193774459       -0.2864793290       -1.0703650368
 C         -6.6769521397       -0.7525875115       -2.3313727159
 C         -7.7020874466       -1.0464681589       -3.2100511857
 C         -9.0381728085       -0.8899656080       -2.8477956293
 C         -9.3850039503       -0.4459715066       -1.5874795110
 C         -8.3725099701       -0.1443962544       -0.6862476180
 C         -8.3647466035        0.3065806460        0.6774005871
 C         -9.3660692509        0.6408424176        1.5796250356
 C         -9.0036734393        1.0750299767        2.8389669399
 C         -7.6628265235        1.1903950297        3.1991816069
 C         -6.6486740089        0.8628008742        2.3197618521
 C         -7.0074934794        0.4055829268        1.0600638215
 C         -4.1220357577       -0.6719175664        0.9970998143
 C         -2.7425589441       -0.7037614487        0.9965796274
 C          0.2024470360        1.0819657002       -0.2271183406
 N          1.5147279148        1.1208721078       -0.2289502456
 O          4.3549237626       -1.0730562504        0.0418501577
 C          5.6545460446       -0.6795331730        0.0294090961
 C          6.6863258971       -1.6946249718        0.1244017081
 C          7.9095116815       -1.4261582962        0.7400305659
 C          8.8736749246       -2.4116840694        0.8225684976
 C          8.6335757033       -3.6737484541        0.3017283792
 C          7.4146669051       -3.9521769359       -0.2944337850
 C          6.4441413798       -2.9728214061       -0.3802632633
 C          7.9379241893        1.3514563326       -0.8122929408
 C          8.9531201223        2.2861602327       -0.8905535561
 H          9.6020884646        4.2568392502       -0.3623133659
 H          7.5012925679        4.8218907667        0.8028779391
 H          5.6767979484        3.1523781138        0.9312585818
 H          2.1196853515       -2.1084363281        0.4563431950
 H         -0.3686291390       -2.1689170151        0.4608262385
 H         -2.1539453518        1.1546630350       -1.7624614720
 H         -4.6148536163        1.2178219463       -1.7639900082
 H         -5.6446572527       -0.8923248128       -2.6155369841
 H         -7.4619497279       -1.4080755824       -4.1991143988
 H         -9.8101526863       -1.1287882601       -3.5640928948
 H        -10.4205642763       -0.3396966547       -1.3014134854
 H        -10.4048631914        0.5675564109        1.2949123626
 H         -9.7667055438        1.3405866273        3.5553498433
 H         -7.4100241769        1.5481641161        4.1863819699
 H         -5.6120638002        0.9716757307        2.6017004971
 H         -4.6799351450       -1.1910937990        1.7620789769
 H         -2.2202481975       -1.2331661936        1.7800122062
 H         -0.2899080912        2.0278800141       -0.4128612386
 H          8.0912391836       -0.4492485476        1.1613561843
 H          9.8181928926       -2.1955931524        1.2995872744
 H          9.3926665579       -4.4390557126        0.3652242041
 H          7.2200111214       -4.9365717158       -0.6943698425
 H          5.4939278868       -3.1847299964       -0.8476646653
 H          8.0509427174        0.3874954830       -1.2864644813
 H          9.8646243040        2.0431985990       -1.4171921918
