  45
        -74.90898230
 C         -3.9096117229        0.8262674173       -1.6572182733
 C         -4.3875302737        0.1890374789       -0.5257082595
 C         -3.6774944261       -0.8590183600        0.0336249145
 C         -2.4761306756       -1.2760652498       -0.5293794177
 C         -1.7410225028       -2.4087429613        0.0530349382
 C         -2.3842864959       -3.6292420061        0.2396600068
 C         -1.6765979372       -4.7138705295        0.7268825682
 C         -0.3266055929       -4.5414840561        0.9961016571
 N          0.2946327527       -3.3888072920        0.8489213021
 C         -0.3836913754       -2.3347238131        0.4091512523
 C          0.3719803195       -1.0728393254        0.3346604460
 C          1.7472969117       -1.0951660249        0.1166549278
 C          2.4286001744        0.1163415914        0.0272084679
 C          3.8606002953        0.1312169480       -0.2125860180
 C          4.7439891190        1.1963534840       -0.2976410921
 N          5.9379451554        0.6150822224       -0.5349733803
 N          5.8047497590       -0.7085827449       -0.5940981651
 N          4.5827168596       -1.0032860879       -0.4040726331
 C          1.7002043508        1.2949869031        0.1628526289
 C          0.3300514991        1.2118659166        0.4004224328
 C         -0.4801816116        2.4289687159        0.5460505287
 C         -1.8430197173        2.3398057780        0.8326295336
 C         -2.5767791930        3.5062167294        0.9364849207
 C         -1.9311906124        4.7211488166        0.7596443963
 C         -0.5710287628        4.7033751811        0.4875853035
 N          0.1386910454        3.5968734173        0.3807534323
 N         -0.3126670821        0.0532047785        0.4892227422
 C         -2.0103369370       -0.6399003567       -1.6771506784
 C         -2.7208115454        0.4061417943       -2.2323800417
 H         -4.4611862702        1.6466000454       -2.0923702533
 H         -5.3157970601        0.5096276214       -0.0746662383
 H         -4.0441289882       -1.3467531456        0.9260184404
 H         -3.4306733525       -3.7229814521       -0.0168728669
 H         -2.1546013374       -5.6688647461        0.8806689263
 H          0.2867375854       -5.3588948652        1.3520796898
 H          2.2718155341       -2.0298848370        0.0157577284
 H          4.6164765162        2.2538154289       -0.2100186839
 H          6.8381152962        1.0537188779       -0.6602775704
 H          2.1566353628        2.2679778970        0.0920773666
 H         -2.2869265712        1.3669043534        0.9594723194
 H         -3.6353746983        3.4708050839        1.1512383262
 H         -2.4653081836        5.6560077586        0.8308410850
 H         -0.0185598305        5.6238313262        0.3441391481
 H         -1.0889067457       -0.9737977195       -2.1321674051
 H         -2.3482921314        0.8964230175       -3.1200586351
