  45
  -74.9089823000000       0.157793111922600      !
 C         -3.9096117229        0.8262674173       -1.6572182733
 C         -4.3875302737        0.1890374789       -0.5257082595
 C         -3.6774944261       -0.8590183600        0.0336249145
 C         -2.4761306756       -1.2760652498       -0.5293794177
 C         -1.7410225028       -2.4087429613        0.0530349382
 C         -2.3842864959       -3.6292420061        0.2396600068
 C         -1.6765979372       -4.7138705295        0.7268825682
 C         -0.3266055929       -4.5414840561        0.9961016571
 N          0.2946327527       -3.3888072920        0.8489213021
 C         -0.3836913754       -2.3347238131        0.4091512523
 C          0.3719803195       -1.0728393254        0.3346604460
 C          1.7472969117       -1.0951660249        0.1166549278
 C          2.4286001744        0.1163415914        0.0272084679
 C          3.8606002953        0.1312169480       -0.2125860180
 C          4.7439891190        1.1963534840       -0.2976410921
 N          5.9379451554        0.6150822224       -0.5349733803
 N          5.8047497590       -0.7085827449       -0.5940981651
 N          4.5827168596       -1.0032860879       -0.4040726331
 C          1.7002043508        1.2949869031        0.1628526289
 C          0.3300514991        1.2118659166        0.4004224328
 C         -0.4801816116        2.4289687159        0.5460505287
 C         -1.8430197173        2.3398057780        0.8326295336
 C         -2.5767791930        3.5062167294        0.9364849207
 C         -1.9311906124        4.7211488166        0.7596443963
 C         -0.5710287628        4.7033751811        0.4875853035
 N          0.1386910454        3.5968734173        0.3807534323
 N         -0.3126670821        0.0532047785        0.4892227422
 C         -2.0103369370       -0.6399003567       -1.6771506784
 C         -2.7208115454        0.4061417943       -2.2323800417
 H         -4.4611862702        1.6466000454       -2.0923702533
 H         -5.3157970601        0.5096276214       -0.0746662383
 H         -4.0441289882       -1.3467531456        0.9260184404
 H         -3.4306733525       -3.7229814521       -0.0168728669
 H         -2.1546013374       -5.6688647461        0.8806689263
 H          0.2867375854       -5.3588948652        1.3520796898
 H          2.2718155341       -2.0298848370        0.0157577284
 H          4.6164765162        2.2538154289       -0.2100186839
 H          6.8381152962        1.0537188779       -0.6602775704
 H          2.1566353628        2.2679778970        0.0920773666
 H         -2.2869265712        1.3669043534        0.9594723194
 H         -3.6353746983        3.4708050839        1.1512383262
 H         -2.4653081836        5.6560077586        0.8308410850
 H         -0.0185598305        5.6238313262        0.3441391481
 H         -1.0889067457       -0.9737977195       -2.1321674051
 H         -2.3482921314        0.8964230175       -3.1200586351
  45
  -74.9089651800000       0.154960223449893      !
 C         -3.9558915952        0.7972284564        1.4881758883
 C         -2.8068593868        0.3398089414        2.1133732665
 C         -2.0808338694       -0.6977675628        1.5623515747
 C         -2.4914138272       -1.2885826993        0.3701499719
 C         -1.7353821215       -2.4076885329       -0.2116067231
 C         -2.3720160166       -3.6169597978       -0.4756676471
 C         -1.6423656978       -4.6865066382       -0.9643305907
 C         -0.2792573452       -4.5118738595       -1.1540317084
 N          0.3375297395       -3.3685382569       -0.9320428826
 C         -0.3609310874       -2.3279723385       -0.4924449644
 C          0.3885185256       -1.0696979757       -0.3371411095
 C          1.7449507682       -1.0961686139       -0.0237272612
 C          2.4163527142        0.1138966846        0.1351989252
 C          3.8277143595        0.1262352572        0.4759894765
 C          4.7031697723        1.1905478597        0.6263781006
 N          5.8770712972        0.6081156584        0.9463915897
 N          5.7395608487       -0.7155892465        0.9923836442
 N          4.5338406630       -1.0089965075        0.7157019543
 C          1.6978078564        1.2946225405       -0.0311654352
 C          0.3476482381        1.2157545581       -0.3648937065
 C         -0.4507536902        2.4352464123       -0.5502220881
 C         -1.7876176953        2.3516070239       -0.9414855541
 C         -2.5107658627        3.5203038744       -1.0863161337
 C         -1.8805767564        4.7319058721       -0.8435704120
 C         -0.5460147501        4.7085883978       -0.4661196601
 N          0.1533196774        3.5999476174       -0.3205642564
 N         -0.2857685288        0.0587753479       -0.5178726117
 C         -3.6550827056       -0.8361938429       -0.2424350608
 C         -4.3799880741        0.2042150381        0.3119844182
 H         -4.5188910180        1.6120209301        1.9191187119
 H         -2.4769172149        0.7949891196        3.0359113675
 H         -1.1897518118       -1.0599431255        2.0548600375
 H         -3.4308556944       -3.7146376720       -0.2789115946
 H         -2.1144076930       -5.6327625269       -1.1786476995
 H          0.3493348336       -5.3192038228       -1.5063760764
 H          2.2627959076       -2.0323879551        0.0962609333
 H          4.5835743674        2.2482178820        0.5314676622
 H          6.7665248827        1.0451906080        1.1365413755
 H          2.1469135421        2.2662666376        0.0881206309
 H         -2.2206288790        1.3810441892       -1.1141292332
 H         -3.5490946559        3.4894623780       -1.3847060639
 H         -2.4071482517        5.6684162338       -0.9438153969
 H         -0.0063099615        5.6261203331       -0.2674432265
 H         -3.9789309608       -1.2896196538       -1.1687755497
 H         -5.2777331246        0.5537441281       -0.1775477658
  45
  -74.9089627600000       0.154563904095816      !
 C         -4.1030811364        0.7934574381        1.2856958506
 C         -2.9793719510        0.3791507990        1.9828895446
 C         -2.2004707424       -0.6538567883        1.4988350687
 C         -2.5315724078       -1.2823263802        0.3015300213
 C         -1.7327937599       -2.4067834933       -0.2095007221
 C         -2.3512745091       -3.6276681261       -0.4658901863
 C         -1.5984312418       -4.7063808647       -0.8944251857
 C         -0.2298755461       -4.5278987941       -1.0353340797
 N          0.3706478742       -3.3754422879       -0.8196031388
 C         -0.3481479067       -2.3260926717       -0.4344462293
 C          0.3991592788       -1.0658432418       -0.2856704079
 C          1.7599919570       -1.0945210106        0.0117131980
 C          2.4399712387        0.1135044743        0.1449761874
 C          3.8587863045        0.1237894392        0.4532654293
 C          4.7510249551        1.1825966254        0.5273524500
 N          5.9255384986        0.6009012486        0.8462422068
 N          5.7725870146       -0.7167601181        0.9660434068
 N          4.5569212559       -1.0075139476        0.7332432368
 C          1.7235056309        1.2958862653       -0.0189833388
 C          0.3667942650        1.2195866044       -0.3251092462
 C         -0.4322025681        2.4412119612       -0.4928118316
 C         -1.7755671347        2.3616670321       -0.8617642646
 C         -2.5020640056        3.5313072756       -0.9780421172
 C         -1.8676990541        4.7404137003       -0.7333897547
 C         -0.5253375911        4.7136498692       -0.3847040151
 N          0.1766006859        3.6036312462       -0.2637496568
 N         -0.2731198136        0.0641589970       -0.4632820801
 C         -3.6684243006       -0.8702700911       -0.3860694325
 C         -4.4470517056        0.1645105583        0.1018845077
 H         -4.7078607053        1.6038379405        1.6652692634
 H         -2.7122954981        0.8629860240        2.9111318315
 H         -1.3312520932       -0.9836876996        2.0493582463
 H         -3.4170139668       -3.7256684293       -0.3107520726
 H         -2.0574611020       -5.6602267214       -1.1031109015
 H          0.4162280057       -5.3387582978       -1.3456744421
 H          2.2746738261       -2.0321320886        0.1336108872
 H          4.6433668309        2.2356123976        0.3782832383
 H          6.8237386041        1.0373166034        0.9926056906
 H          2.1785336889        2.2665241832        0.0848215881
 H         -2.2111387411        1.3932935241       -1.0405365668
 H         -3.5462926389        3.5024908589       -1.2549456736
 H         -2.3967409718        5.6775845711       -0.8111919446
 H          0.0183067913        5.6294758363       -0.1880678053
 H         -3.9289825821       -1.3515504045       -1.3183192121
 H         -5.3210023385        0.4838990297       -0.4479819526
  45
  -74.9088774400000       0.141220492520333      !
 C         -4.0922956484        0.8272007431       -1.4172116320
 C         -4.4699187228        0.1474065408       -0.2725944271
 C         -3.6954836713       -0.8970089763        0.2017410798
 C         -2.5297097185       -1.2676598663       -0.4601545333
 C         -1.7402361658       -2.4084325288        0.0292333594
 C         -2.3601664511       -3.6451458710        0.1910280046
 C         -1.6205541885       -4.7423785235        0.5945510207
 C         -0.2617554884       -4.5639668207        0.8109065288
 N          0.3380125042       -3.3982288209        0.6869117006
 C         -0.3682460252       -2.3322726695        0.3228470153
 C          0.3836791982       -1.0672299655        0.2695709146
 C          1.7656168796       -1.0929387185        0.0917770178
 C          2.4563299538        0.1148426432        0.0400795131
 C          3.8977660379        0.1237026157       -0.1352908591
 C          4.7969321257        1.1784893839       -0.1054771381
 N          5.9944008614        0.5958277696       -0.3212714845
 N          5.8482729640       -0.7190432388       -0.4749735826
 N          4.6147193774       -1.0069263744       -0.3655250369
 C          1.7289382164        1.2960852779        0.1560291033
 C          0.3507763631        1.2174039218        0.3435875050
 C         -0.4576421176        2.4392292400        0.4574887153
 C         -1.8197169033        2.3619628835        0.7499444720
 C         -2.5522958774        3.5322367267        0.8117001789
 C         -1.9058534140        4.7393292834        0.5902189403
 C         -0.5452101778        4.7105831854        0.3213041631
 N          0.1630324954        3.6001886802        0.2536030455
 N         -0.2997402191        0.0614379615        0.4104119256
 C         -2.1635607974       -0.5868941295       -1.6179162081
 C         -2.9382013502        0.4553569901       -2.0884291033
 H         -4.6949739267        1.6433834199       -1.7876483437
 H         -5.3701016348        0.4302873952        0.2542829274
 H         -3.9843550149       -1.4199366225        1.1027168950
 H         -3.4168203218       -3.7394172205       -0.0191349281
 H         -2.0810209344       -5.7091373346        0.7261924076
 H          0.3765546983       -5.3874120459        1.1032786532
 H          2.2876189128       -2.0297037808       -0.0021687886
 H          4.6788553850        2.2293975380        0.0494910651
 H          6.9052332594        1.0274584571       -0.3713540913
 H          2.1916554727        2.2673891752        0.1060032872
 H         -2.2646269739        1.3952551345        0.9138570160
 H         -3.6108075927        3.5051873633        1.0279233569
 H         -2.4392473972        5.6766106385        0.6259583138
 H          0.0086527592        5.6247465248        0.1467722628
 H         -1.2697944863       -0.8830140504       -2.1477609816
 H         -2.6440974439        0.9799629768       -2.9858521481
  45
  -74.9088609100000       0.138771748316470      !
 C         -4.1810682147        0.8220711665        1.0874254815
 C         -3.0891460259        0.4359356817        1.8486802472
 C         -2.2830256199       -0.6055153054        1.4325659149
 C         -2.5538905392       -1.2706834827        0.2400329545
 C         -1.7290425638       -2.4081537663       -0.1962322857
 C         -2.3342115685       -3.6430031275       -0.4162335128
 C         -1.5651743292       -4.7370250545       -0.7705507323
 C         -0.1938409547       -4.5569657449       -0.8805754009
 N          0.3941729790       -3.3924524206       -0.7007869351
 C         -0.3384487525       -2.3297000935       -0.3823884660
 C          0.4059577039       -1.0654088940       -0.2569866775
 C          1.7714315995       -1.0925772928        0.0201328514
 C          2.4531821615        0.1149798818        0.1452247290
 C          3.8784142846        0.1220286855        0.4229318616
 C          4.7698112635        1.1805264324        0.5049455266
 N          5.9533198483        0.5934309546        0.7781244346
 N          5.8063281596       -0.7275750362        0.8607597249
 N          4.5857224009       -1.0148721736        0.6515397238
 C          1.7326709486        1.2973481344        0.0006155509
 C          0.3724996552        1.2202407229       -0.2900326830
 C         -0.4297293322        2.4423401579       -0.4389576975
 C         -1.7554790467        2.3706618461       -0.8679294424
 C         -2.4870073003        3.5396384686       -0.9595829502
 C         -1.8749621724        4.7399433861       -0.6301492948
 C         -0.5476788845        4.7064599556       -0.2281430419
 N          0.1590116754        3.5971077880       -0.1321869405
 N         -0.2677913825        0.0649578668       -0.4277235026
 C         -3.6587122774       -0.8866256975       -0.5123384672
 C         -4.4651360979        0.1568996778       -0.0922476426
 H         -4.8081802656        1.6381520142        1.4152256854
 H         -2.8683243805        0.9491014859        2.7733404676
 H         -1.4381101794       -0.9127734281        2.0316855388
 H         -3.4038346908       -3.7387297280       -0.2886872607
 H         -2.0136536065       -5.7025227937       -0.9453468468
 H          0.4654165804       -5.3780008534       -1.1301046567
 H          2.2879673246       -2.0302340760        0.1329589530
 H          4.6552398708        2.2370582766        0.3916169776
 H          6.8551475006        1.0259030634        0.9120958546
 H          2.1875054158        2.2681278420        0.1045056986
 H         -2.1745757728        1.4090115006       -1.1107407711
 H         -3.5181963167        3.5168919144       -1.2820258966
 H         -2.4092381919        5.6758790328       -0.6843886194
 H         -0.0209969877        5.6155731001        0.0347597281
 H         -3.8738217131       -1.3981597473       -1.4400997749
 H         -5.3168910642        0.4506551136       -0.6890475194
  45
  -74.9086587100000       0.112040844518404      !
 C         -4.0713663889        0.8821739133        1.2050018254
 C         -2.9632230936        0.4598290768        1.9221194803
 C         -2.2101390757       -0.6075915760        1.4745818442
 C         -2.5495588481       -1.2621182039        0.2934249406
 C         -1.7713646267       -2.4178181401       -0.1780506218
 C         -2.4116111621       -3.6339450866       -0.4006471290
 C         -1.6761842818       -4.7423785423       -0.7816525142
 C         -0.3028614045       -4.5972762202       -0.9090851915
 N          0.3194357226       -3.4496988869       -0.7277272988
 C         -0.3830933509       -2.3718920837       -0.3917760396
 C          0.3855617693       -1.1214829176       -0.2740072253
 C          1.7472110332       -1.1685776414        0.0168425806
 C          2.4450386715        0.0300822780        0.1425266288
 C          3.8666932291        0.0525935387        0.4375214645
 C          4.7649449736       -0.9907918778        0.6003980304
 N          5.9399439649       -0.3773187997        0.8512246178
 N          5.7818087118        0.9450702131        0.8449635441
 N          4.5622236641        1.2077571190        0.6012977105
 C          1.7439181087        1.2225861386       -0.0169270039
 C          0.3869094691        1.1645040013       -0.3257825036
 C         -0.4020069283        2.3921442890       -0.4984057267
 C         -1.7213806367        2.3259196240       -0.9482751026
 C         -2.4421511056        3.4994343047       -1.0635578865
 C         -1.8261878880        4.6977759819       -0.7354403811
 C         -0.5057421698        4.6579294944       -0.3104183402
 N          0.1896692193        3.5443506413       -0.1920425947
 N         -0.2681174000        0.0165921534       -0.4622060450
 C         -3.6721242036       -0.8432698759       -0.4123930141
 C         -4.4262239485        0.2255259123        0.0399733559
 H         -4.6559577238        1.7197035405        1.5560008933
 H         -2.6868761651        0.9657441397        2.8356631302
 H         -1.3519057560       -0.9417932553        2.0396269250
 H         -3.4807687508       -3.7049391568       -0.2551950447
 H         -2.1517305375       -5.6939582726       -0.9614473690
 H          0.3302833135       -5.4338041156       -1.1753914284
 H          2.2231129987       -2.1273420520        0.1382673704
 H          4.6608909650       -2.0535170301        0.5553916857
 H          6.8431427878       -0.7919151900        1.0262191001
 H          2.2380391532        2.1728627500        0.0904524695
 H         -2.1453916849        1.3652596240       -1.1873404401
 H         -3.4683943320        3.4813474805       -1.4022291062
 H         -2.3526407147        5.6368694391       -0.8078542984
 H          0.0239880974        5.5647418610       -0.0470364800
 H         -3.9409269543       -1.3456338265       -1.3311801706
 H         -5.2918800546        0.5470389005       -0.5213090750
  45
  -74.9085899400000       0.104177005539992      !
 C         -3.8431130938        0.8293630741       -1.7373552323
 C         -4.3544519475        0.2319239025       -0.5988390287
 C         -3.6827067243       -0.8225528475       -0.0055239486
 C         -2.4860306021       -1.2854966198       -0.5415596946
 C         -1.7850033653       -2.4202893301        0.0769104383
 C         -2.4554149016       -3.6200855143        0.2968710011
 C         -1.7707277856       -4.7071347691        0.8117917705
 C         -0.4158466253       -4.5602180892        1.0686256514
 N          0.2320233400       -3.4255749160        0.8913790262
 C         -0.4264925469       -2.3666658323        0.4320028236
 C          0.3491334130       -1.1182743932        0.3377809441
 C          1.7219274299       -1.1650138282        0.1090724403
 C          2.4219087293        0.0350002397        0.0084420631
 C          3.8529057023        0.0606673978       -0.2368872877
 C          4.7634287775       -0.9793546596       -0.3423653079
 N          5.9415390151       -0.3632998343       -0.5719966637
 N          5.7737065347        0.9573719381       -0.6071557374
 N          4.5451219764        1.2166128402       -0.4096006409
 C          1.7136910520        1.2261749731        0.1430150481
 C          0.3445982293        1.1672193339        0.3931529105
 C         -0.4467997684        2.3950835561        0.5518069264
 C         -1.8079065136        2.3243082269        0.8525623069
 C         -2.5213506106        3.5013936961        0.9776848641
 C         -1.8582300378        4.7073239826        0.8057531746
 C         -0.5017058612        4.6703870023        0.5149740832
 N          0.1876008924        3.5538885713        0.3892068463
 N         -0.3158441352        0.0184648264        0.4919294692
 C         -1.9877701137       -0.6903887326       -1.6977237031
 C         -2.6600943644        0.3619437471       -2.2869842420
 H         -4.3644011378        1.6554323268       -2.1979188965
 H         -5.2790037401        0.5893558167       -0.1686448972
 H         -4.0748291437       -1.2783144191        0.8928329162
 H         -3.5041547975       -3.6973245717        0.0450035622
 H         -2.2699663775       -5.6458862179        0.9951523360
 H          0.1797781538       -5.3833964011        1.4418102120
 H          2.2051003985       -2.1230469311        0.0119634706
 H          4.6658104937       -2.0412014828       -0.2705152513
 H          6.8525996294       -0.7757952017       -0.7064956360
 H          2.2115179042        2.1771280141        0.0617733927
 H         -2.2671596403        1.3578278030        0.9747041331
 H         -3.5776678106        3.4808663467        1.2060169529
 H         -2.3761791936        5.6497240928        0.8954366552
 H          0.0645420061        5.5825537297        0.3739061158
 H         -1.0701605231       -1.0602531816       -2.1325674003
 H         -2.2614367563        0.8203258676       -3.1801829452
  45
  -74.9075981300000       3.647266963649346E-002 !
 C         -3.3460080754        0.6712305623        2.2322696651
 C         -2.1367367087        0.0761845607        2.5533323126
 C         -1.6242860027       -0.9276325642        1.7555809657
 C         -2.3134509703       -1.3482024432        0.6202423794
 C         -1.7455343854       -2.4033208803       -0.2308294498
 C         -2.4630377229       -3.5499152136       -0.5516833074
 C         -1.8544566089       -4.5487340982       -1.2935245577
 C         -0.5300012653       -4.3741162762       -1.6655263475
 N          0.1592871771       -3.2817149141       -1.3929296876
 C         -0.4309178894       -2.3061143247       -0.7179843446
 C          0.3370151962       -1.0626223789       -0.5178278166
 C          1.6762163994       -1.0897802526       -0.1462789828
 C          2.3245872420        0.1223257469        0.0851481752
 C          3.7017235917        0.1360644797        0.5445345873
 C          4.5551254097        1.2017627601        0.7853044428
 N          5.6929615853        0.6204985507        1.2176583109
 N          5.5552072500       -0.7036644001        1.2444439190
 N          4.3833593721       -0.9987492149        0.8490227224
 C          1.6115636442        1.3022023831       -0.1074132205
 C          0.2816667838        1.2227264371       -0.5134288145
 C         -0.5099974442        2.4387702614       -0.7439703629
 C         -1.8755750953        2.3490868455       -1.0189202910
 C         -2.5858801412        3.5142799200       -1.2372319544
 C         -1.9157374495        4.7275943675       -1.1787531507
 C         -0.5579599732        4.7100558784       -0.8952880975
 N          0.1298502796        3.6050524916       -0.6810870987
 N         -0.3397459086        0.0643411705       -0.6991012131
 C         -3.5379092741       -0.7633487204        0.3180157590
 C         -4.0469259959        0.2449021418        1.1176545764
 H         -3.7408100742        1.4626780008        2.8521394596
 H         -1.5907351913        0.3967916972        3.4287837607
 H         -0.6834056188       -1.3955450567        2.0087254487
 H         -3.4813630998       -3.6601389354       -0.2050476021
 H         -2.3892584475       -5.4462881796       -1.5629944117
 H          0.0056220395       -5.1360656208       -2.2162802101
 H          2.1976969422       -2.0230984488       -0.0176761386
 H          4.4421952901        2.2595533936        0.6829576953
 H          6.5575965841        1.0592922508        1.4973600061
 H          2.0492702198        2.2735237681        0.0506999747
 H         -2.3376994909        1.3764322890       -1.0503071242
 H         -3.6445155136        3.4804619325       -1.4523835709
 H         -2.4299747794        5.6608295537       -1.3487651292
 H          0.0123160977        5.6290404914       -0.8392954290
 H         -4.0785771308       -1.0851274100       -0.5609094276
 H         -4.9931079145        0.7030314913        0.8679293385
