  57
        -92.02708538
 C         -6.9415314815        1.7425017714        1.5956024569
 C         -6.0368777709        2.7316271053        1.2453548756
 C         -4.7557007141        2.3955125757        0.8538869083
 C         -4.3634890028        1.0577512246        0.7954163586
 C         -2.9943783167        0.7331595140        0.4005498294
 N         -2.0227785330        1.5262028811        0.8452418559
 C         -0.7372403359        1.2509482933        0.6527040274
 C          0.2891993749        2.0750420355        1.1128199367
 C          1.6196265570        1.7220893413        0.9443721942
 C          1.9496283182        0.5401788895        0.2991153420
 N          3.3111475667        0.1758491575        0.1418667074
 C          3.8229917731       -0.9236332262        0.8169125168
 C          3.0421599893       -1.7019495285        1.6670804989
 C          3.5854051331       -2.7942536398        2.3207344159
 C          4.9170491188       -3.1255900757        2.1467949424
 C          5.7154072533       -2.3490306289        1.3221191753
 C          5.1798653723       -1.2550307377        0.6655499299
 O          6.0280434375       -0.5179512372       -0.1164707472
 C          5.5084754548        0.5664699380       -0.7706609577
 C          6.3730140071        1.3012058886       -1.5629693805
 C          5.9068212896        2.3968607177       -2.2717780523
 C          4.5698143981        2.7439420247       -2.1951551287
 C          3.6995364904        2.0157400080       -1.4028554180
 C          4.1545950067        0.9266406675       -0.6645662240
 C          0.9502291450       -0.3007425871       -0.1973781679
 C         -0.3902323550        0.0263328877       -0.0379668510
 N         -1.3777388195       -0.7219906644       -0.5298871547
 C         -2.6568647357       -0.3933625679       -0.3785189199
 C         -3.6507828771       -1.2223738114       -1.0585744715
 C         -4.7552890006       -0.6604433535       -1.6996434164
 C         -5.6623816268       -1.4679820353       -2.3564640510
 C         -5.4815132462       -2.8421862505       -2.3909756446
 C         -4.3741704011       -3.4047820095       -1.7770943479
 C         -3.4610853519       -2.6031771786       -1.1203210926
 C         -5.2720416308        0.0689275813        1.1745471236
 C         -6.5504012923        0.4127210612        1.5667565295
 H         -7.9439504957        2.0058808899        1.8986744647
 H         -6.3320038901        3.7703703826        1.2785331318
 H         -4.0440220302        3.1602563807        0.5820412143
 H          0.0221505826        2.9816922350        1.6310792206
 H          2.4021373928        2.3618842945        1.3234654294
 H          2.0062012001       -1.4443454187        1.8148488060
 H          2.9590113348       -3.3838813902        2.9720704421
 H          5.3405462661       -3.9775762228        2.6542888428
 H          6.7603288424       -2.5725948140        1.1759948599
 H          7.4057890211        0.9958934232       -1.6124744860
 H          6.5865637357        2.9670042414       -2.8846028323
 H          4.1941119834        3.5860290809       -2.7553136569
 H          2.6564416251        2.2843736035       -1.3556296367
 H          1.2092641744       -1.2005039188       -0.7321913174
 H         -4.8935198214        0.4103462616       -1.6907566480
 H         -6.5138957683       -1.0231238540       -2.8503847287
 H         -6.1961695673       -3.4699128423       -2.9022487697
 H         -4.2215357208       -4.4738506486       -1.8119756370
 H         -2.5942807542       -3.0329508421       -0.6415382794
 H         -4.9691859924       -0.9673544640        1.1729887884
 H         -7.2458700895       -0.3609192547        1.8579097325
