  38
        -61.95709614
 C         -2.3164881495       -3.8101477449        0.2047570097
 C         -0.9379119249       -3.6252614487        0.1614401648
 C         -0.4020588520       -2.3543978715        0.0966444264
 C         -1.2344800914       -1.2358742390        0.0473350006
 C         -2.6327776586       -1.4330899497        0.1001566389
 C         -3.1595178222       -2.7169603925        0.1820746722
 O         -3.5118049151       -0.3971041816        0.0870366061
 C         -3.0190109595        0.8600391148       -0.0742574125
 C         -3.9271756165        1.9034226601       -0.1663117214
 C         -3.4825196086        3.1941546972       -0.3802684467
 C         -2.1158589155        3.4407347492       -0.5297693733
 C         -1.2034901186        2.4170102385       -0.4217305070
 C         -1.6257746312        1.1066396082       -0.1635165914
 N         -0.7393962501        0.0575860539       -0.0172042940
 C          0.6268259407        0.3077385958        0.1938725768
 C          1.0202590243        1.1696115647        1.2105618453
 C          2.3703353887        1.3635219314        1.4430549435
 C          3.3282004912        0.7027600176        0.6341880572
 C          4.7069487182        0.8575017358        0.7703208030
 C          5.5885168729        0.1816275461       -0.0670919872
 C          5.1041423950       -0.6466529035       -1.0649209604
 C          3.7391219415       -0.8102644399       -1.2418030373
 C          2.8275487265       -0.1480347320       -0.4046224174
 N          1.5145082542       -0.3133814466       -0.6025561039
 H         -2.7294039625       -4.8044528855        0.2677690159
 H         -0.2778093349       -4.4776965461        0.1890290440
 H          0.6653391131       -2.2126104158        0.0605267764
 H         -4.2311923741       -2.8261065386        0.2307070476
 H         -4.9772768052        1.6758543778       -0.0756901806
 H         -4.1906492585        4.0038725992       -0.4482467726
 H         -1.7700301013        4.4421435306       -0.7316121647
 H         -0.1494997912        2.6084765765       -0.5454755040
 H          0.2690183329        1.6333073739        1.8328909087
 H          2.7002051709        1.9954284739        2.2526892294
 H          5.0851883190        1.5219420369        1.5339746358
 H          6.6531086687        0.3090824382        0.0634430471
 H          5.7910708363       -1.1708413402       -1.7133385455
 H          3.3498540858       -1.4686029313       -2.0027134126
