80
 energy: -119.400262502589 gnorm: 0.000057075068 xtb: 6.7.1 (edcfbbe)
C           -5.70112119100275        2.88760243746950       -1.96150277891407
C           -5.94361680587009        1.80740507215384       -0.89138475309786
C           -7.39205426288240        1.88271967300477       -0.37486178447761
C           -5.00483974370599        2.05236157408595        0.27374689993605
C           -5.08090002210299        3.25378396994912        0.96585828398007
C           -4.28237318748300        3.52327459838124        2.06111791661336
C           -3.39374988277536        2.55910214614283        2.50057435890527
C           -3.29797489697676        1.35726561534399        1.83158612326302
C           -4.07732901893626        1.09640973078518        0.70026805402372
N           -3.95019415173095       -0.11886525909610        0.03807261074573
C           -3.00083567067853       -1.05913943604730        0.50271099420946
C           -3.43232631294315       -2.24297319826765        1.09427954969655
C           -2.51844655168477       -3.17937300097382        1.55794750254220
C           -1.17150400162686       -2.90928299129584        1.42188110250349
C           -0.73026824110294       -1.71309196309691        0.82459120373446
C           -1.63572723577737       -0.78456598115873        0.36280654117327
C            0.73261058373849       -1.70990450964155        0.82861344518181
C            1.63654229987600       -0.77799622393405        0.37055855997636
C            3.00199553188165       -1.04719667977878        0.51695646747075
N            3.95020319429567       -0.10540131119062        0.05287830159972
C            4.74452302412414       -0.42643770681617       -1.04164544091312
C            4.54052521029653       -1.63311669558011       -1.71780676791875
C            5.32188227633754       -1.98445423507659       -2.79803948829978
C            6.31805413377374       -1.13013924315331       -3.23456060355502
C            6.49589616231513        0.08070429686925       -2.59276066723231
C            5.72143248820887        0.46054927839243       -1.50448819254137
C            5.94062808732013        1.82348041648335       -0.87752281967738
C            7.38789385545028        1.90488918952311       -0.35870654346858
C            5.69658162853715        2.89975070827103       -1.95126039406553
C            4.99886413764644        2.06903031107041        0.28508319367733
C            5.07015513778759        3.27257085861479        0.97397883251076
C            4.26848703722383        3.54288290183224        2.06675573086908
C            3.38136351550445        2.57759696098379        2.50682585592852
C            3.29006714714635        1.37375568860415        1.84080288568334
C            4.07278221981862        1.11188291629000        0.71206536725142
C            3.43532684615325       -2.22825818056069        1.11269738602685
C            2.52303270509147       -3.16792505355401        1.57285073319771
C            1.17570069804958       -2.90389075625550        1.42894197998231
C            0.00273875297230       -3.72254727006453        1.82904193909191
O            0.00360975643113       -4.80785204839177        2.36373687107310
C           -4.74128821766436       -0.43896465656804       -1.05903913283064
C           -4.53285136713094       -1.64341402651023       -1.73781172037985
C           -5.31059781223697       -1.99359395684783       -2.82103278553374
C           -6.30739931881254       -1.14023860675667       -3.25799316209870
C           -6.48977090971703        0.06841354177759       -2.61334516444875
C           -5.71914799554554        0.44697484426599       -1.52190534324134
H           -6.37632088135004        2.75991929844120       -2.80287730735085
H           -4.67871358486595        2.82126777986425       -2.32902569778306
H           -5.85412942437980        3.88193381258718       -1.55142662834823
H           -7.59840794871654        2.85510307539849        0.06351748355495
H           -8.10067809597434        1.71586958187702       -1.18130332122267
H           -7.55309766181330        1.12192467579859        0.38673721832344
H           -5.78692453965119        4.00520357525873        0.64643469118134
H           -4.36455734577330        4.46973058065702        2.57310121306207
H           -2.77644459206847        2.73638735114878        3.36850048209146
H           -2.61582577144372        0.60589439177847        2.19814476396998
H           -4.49308251137599       -2.42248595574035        1.18768685260198
H           -2.84741723677487       -4.09571356762900        2.02341716184146
H           -1.31966124086089        0.13814422888591       -0.10039996178683
H            1.31903193044259        0.14288789471754       -0.09528957036029
H            3.75517078225717       -2.30031436793255       -1.39795959177923
H            5.14683423212592       -2.92476029371472       -3.29893868171758
H            6.94153433627421       -1.39610348823099       -4.07430687350756
H            7.26188183660752        0.74856211512934       -2.95661356286895
H            8.09850025205903        1.73930045942178       -1.16365440490862
H            7.55040289931867        1.14596683975262        0.40443849988084
H            7.59001547905560        2.87873255569532        0.07839395546946
H            4.67400379234484        2.83119996605298       -2.31790082698828
H            6.37136186257978        2.76973045231397       -2.79263183163622
H            5.84892431524516        3.89561999991091       -1.54467996279235
H            5.77476593308004        4.02503122239109        0.65388568517878
H            4.34705674104518        4.49090485733448        2.57640656530670
H            2.76170411697977        2.75568867095146        3.37290801260972
H            2.60891568545105        0.62155027338877        2.20756353704810
H            4.49634107248943       -2.40332239219546        1.21143607767064
H            2.85350778015220       -4.08231722864335        2.04107264620854
H           -3.74683246682509       -2.30964864462992       -1.41756668317419
H           -5.13221812468982       -2.93215976962191       -3.32401990379383
H           -6.92792748597010       -1.40526039153723       -4.10022158261903
H           -7.25628962547381        0.73550388150379       -2.97747759444945
