  80
       -119.40024413
 C         -5.6708150215        2.8878119910       -1.9713788144
 C         -5.9288418472        1.8105491668       -0.9018188707
 C         -7.3832663388        1.8900510245       -0.4032578900
 C         -5.0037642513        2.0574734764        0.2738219280
 C         -5.0872412982        3.2600547765        0.9629552947
 C         -4.3002031862        3.5312178613        2.0661643314
 C         -3.4153780099        2.5683351336        2.5161009725
 C         -3.3127419366        1.3651400681        1.8505944580
 C         -4.0815222118        1.1020220086        0.7126437297
 N         -3.9489788233       -0.1151656034        0.0557472965
 C         -3.0003786224       -1.0529843151        0.5276293912
 C         -3.4330547485       -2.2328829001        1.1259086174
 C         -2.5201088748       -3.1703110427        1.5896285529
 C         -1.1729931157       -2.9053396497        1.4458181132
 C         -0.7308029702       -1.7118807147        0.8438584457
 C         -1.6352200241       -0.7817105619        0.3833731102
 C          0.7319489654       -1.7143950168        0.8387361491
 C          1.6362593848       -0.7854727593        0.3758176455
 C          3.0017322151       -1.0592232314        0.5139369933
 N          3.9487125307       -0.1163316028        0.0501522859
 C          4.7406058309       -0.4318494745       -1.0477395222
 C          4.5411480953       -1.6390036052       -1.7243530821
 C          5.3200564239       -1.9842271738       -2.8083264183
 C          6.3089797827       -1.1232444252       -3.2482142426
 C          6.4821003583        0.0879712025       -2.6058493561
 C          5.7101672872        0.4616281301       -1.5136471100
 C          5.9225464929        1.8259374421       -0.8873517292
 C          7.3728346552        1.9203474011       -0.3794906217
 C          5.6607778346        2.9001416367       -1.9590027560
 C          4.9875037458        2.0629543941        0.2823391735
 C          5.0564883514        3.2650631780        0.9739770867
 C          4.2604037555        3.5278734233        2.0726282061
 C          3.3819538161        2.5562230678        2.5160843886
 C          3.2931064050        1.3537483491        1.8473655568
 C          4.0693961048        1.0996361835        0.7123827774
 C          3.4345363399       -2.2433365195        1.1039365730
 C          2.5216635710       -3.1801730220        1.5688369204
 C          1.1743506164       -2.9103573886        1.4356640014
 C          0.0008595448       -3.7229767319        1.8460306310
 O          0.0008436530       -4.8073713034        2.3824848119
 C         -4.7267262336       -0.4372176426       -1.0501181225
 C         -4.5111861685       -1.6435855246       -1.7231934827
 C         -5.2750055954       -1.9948710207       -2.8159166073
 C         -6.2648750495       -1.1411823237       -3.2676497151
 C         -6.4549443952        0.0685712123       -2.6272631470
 C         -5.6982442097        0.4484294566       -1.5265971752
 H         -6.3379413331        2.7607460845       -2.8190888469
 H         -4.6451204042        2.8164374408       -2.3282005165
 H         -5.8237759393        3.8835932000       -1.5651166262
 H         -7.5961802170        2.8677821268        0.0198789711
 H         -8.0822618325        1.7114983190       -1.2155662013
 H         -7.5520679855        1.1390394382        0.3663421767
 H         -5.7897839893        4.0109554251        0.6347483905
 H         -4.3879718240        4.4782703576        2.5761083296
 H         -2.8066445328        2.7478512827        3.3896216069
 H         -2.6339046057        0.6143109319        2.2245041714
 H         -4.4939933320       -2.4091637993        1.2231800599
 H         -2.8499942348       -4.0840246612        2.0595929343
 H         -1.3184927014        0.1388028924       -0.0837107623
 H          1.3190342097        0.1373403660       -0.0863764599
 H          3.7611711929       -2.3113342847       -1.4021503492
 H          5.1486651116       -2.9249388283       -3.3097315026
 H          6.9301271062       -1.3843389471       -4.0912007991
 H          7.2418902836        0.7612618346       -2.9726822886
 H          8.0789253174        1.7575833735       -1.1888943692
 H          7.5466211847        1.1653871682        0.3851008916
 H          7.5707037672        2.8972211321        0.0526535891
 H          4.6368274814        2.8207552574       -2.3195310563
 H          6.3318225801        2.7778682758       -2.8044801011
 H          5.8047230985        3.8972333580       -1.5524559560
 H          5.7545412263        4.0225034330        0.6513053828
 H          4.3367725573        4.4749518364        2.5843318987
 H          2.7672762814        2.7282818838        3.3869180550
 H          2.6187190260        0.5968139240        2.2167998959
 H          4.4954661018       -2.4224644774        1.1960912856
 H          2.8517363809       -4.0963518643        2.0338425350
 H         -3.7305495753       -2.3104388731       -1.3913041157
 H         -5.0909891746       -2.9346019630       -3.3147013396
 H         -6.8740366330       -1.4068571738       -4.1179074369
 H         -7.2160946992        0.7357182104       -3.0024080586
