62
 energy: -97.552359655385 gnorm: 0.000117102256 xtb: 6.7.1 (edcfbbe)
C           -8.13958140794859       -2.91250664818917        0.03830815820198
C           -6.96114662031924       -3.04983934461536       -0.67713709623894
C           -6.03057282066304       -2.02958154355754       -0.69603957693777
C           -6.26541049812175       -0.85114118414564        0.01281716108989
N           -5.32379122499759        0.18318144655261        0.00056293063699
C           -5.74783611509921        1.51607366824914       -0.01469242930791
C           -5.04474763875901        2.49027555598407        0.69449746464143
C           -5.46508438844983        3.80561505340133        0.67257333129570
C           -6.59171970684897        4.17116232607269       -0.04608825479929
C           -7.29563778715334        3.20704628070843       -0.74920139292093
C           -6.87924366306982        1.89027076010728       -0.74009483404430
C           -3.95808221299686       -0.11567992595639        0.00446844723377
C           -3.46889323589517       -1.19990835943633        0.73449652803932
C           -2.12289331056379       -1.49417403186615        0.73184274175751
C           -1.21332709690562       -0.71512336497069        0.01428559235234
C            0.21624260315136       -1.02809292487308        0.01770194234681
C            0.66202015164580       -2.34839021525690        0.02892079018570
C            2.01110349908472       -2.64730213427411        0.02082620185525
C            2.97789757399485       -1.64504018160209        0.01072606797589
N            4.28615663920965       -1.90569428328653        0.00722319710886
C            5.17119965439773       -0.93025705436506        0.00034821656213
C            4.72551306845940        0.43609109838625       -0.00335902330059
N            3.44574426175160        0.71501757398882       -0.00236780739206
C            2.52727937804729       -0.26475720412805        0.00310425389394
C            1.16745809634880       -0.00344075436492        0.00349934150138
C            5.89381286914428        1.28976840275935       -0.00736989720058
C            6.11402915912358        2.64662182519394       -0.01168380436442
C            7.44568877836095        3.10164585376280       -0.01512509655743
C            8.52820192795202        2.25375169616634       -0.01429091609055
C            8.33533397644251        0.85207071997415       -0.00975587851792
C            9.31591387063168       -0.16941783610858       -0.00797570273311
C            8.93518137505465       -1.49075613664540       -0.00326913942383
C            7.59067490869774       -1.90487000419138        0.00005185670842
C            6.61225148779752       -0.93676906506573       -0.00157799556227
C            7.01164155285956        0.42290561333366       -0.00647455126426
C           -1.71038234653268        0.37123519435484       -0.70835128025756
C           -3.05645461193020        0.66445320519721       -0.72100015514481
C           -7.45190678131444       -0.71958604936262        0.73475936016111
C           -8.37940067234224       -1.74285472262266        0.74101470823914
H           -8.86569273933189       -3.71105875750741        0.04819862439537
H           -6.76828802345807       -3.95578313056475       -1.23272928199448
H           -5.11750362942851       -2.13433888423725       -1.26357828684527
H           -4.17253924476691        2.20579717212326        1.26462192754973
H           -4.91327692065842        4.54941371965424        1.22832793377802
H           -6.91873604844278        5.19972303662764       -0.05820383091674
H           -8.17175870912507        3.48370004778021       -1.31709484245763
H           -7.42340370040437        1.14247818237404       -1.29828884782906
H           -4.15444889404542       -1.80314612076360        1.31179671571490
H           -1.76398949059124       -2.32308715560025        1.32363908099739
H           -0.05461855172059       -3.15546925888450        0.01546550051215
H            2.34854232779655       -3.67221538461537        0.01764349492288
H            0.85711131719908        1.02970874600998        0.02017400553474
H            5.29832894434323        3.35335899393214       -0.01242319854579
H            7.61658640044093        4.16897452810969       -0.01853288544883
H            9.53174219703000        2.65405369867620       -0.01700332818766
H           10.36315096365036        0.09556279921469       -0.01029605730870
H            9.69981013876853       -2.25492211741230       -0.00201789573057
H            7.34643289723579       -2.95609305581752        0.00374009721077
H           -1.03394076662275        0.97388123798004       -1.29578778593801
H           -3.42420832092404        1.49785919771493       -1.30181137155296
H           -7.63630334042944        0.18692547913145        1.29252880381327
H           -9.29269130301410       -1.62919407592690        1.30635311689454
