62
 energy: -97.604057277414 gnorm: 0.000027304669 xtb: 6.7.1 (edcfbbe)
C           -8.11871310478689       -2.91694977338268        0.10659829730269
C           -6.95229303537799       -3.05821342855927       -0.62722563758155
C           -6.02294017762853       -2.03723930301141       -0.66824133297297
C           -6.24639779142936       -0.85517995488485        0.03739260953194
N           -5.30684251623793        0.18220748489349        0.00088783286686
C           -5.74021394727713        1.51361021646056       -0.02617073482579
C           -5.04451334644164        2.49810018155239        0.67510592426650
C           -5.47441545825426        3.81030525536726        0.64270477056548
C           -6.60425973998589        4.16140969474369       -0.07783081630373
C           -7.30169726365495        3.18634773073786       -0.77193689470956
C           -6.87490526475756        1.87277131855602       -0.75288085661333
C           -3.94186144230293       -0.10870081847209       -0.00780728741180
C           -3.43958298215121       -1.19322230663993        0.71319626594975
C           -2.09177637425879       -1.48064347802052        0.69669378891711
C           -1.19544372774026       -0.69109259778754       -0.02331013883830
C            0.24032156821669       -0.99016846543722       -0.03098125383252
C            0.68526432224352       -2.32985488227570       -0.07268538164789
C            2.01662496411672       -2.63700724079771       -0.08556223211494
C            2.98282324262923       -1.61537145038582       -0.05214781177248
N            4.29806189938913       -1.94631985721614       -0.06405132930704
C            5.12833921842148       -0.94300547865396       -0.02948215830550
C            4.68637887750533        0.43735333003365        0.01818652727785
N            3.42941261883588        0.77493516343501        0.02778975712128
C            2.54659312238458       -0.25833647271239       -0.00868362705451
C            1.17347798455929        0.02459700320087       -0.00083431450486
C            5.86822653459183        1.28782012727087        0.04832851519932
C            6.09883789343480        2.63923199528015        0.09572062892108
C            7.43317902050908        3.08763178227125        0.11208601129211
C            8.50755054786756        2.23097848042417        0.08264476400363
C            8.30575109634358        0.83296391526242        0.03354052925832
C            9.28176650367155       -0.18876112965086       -0.00178525389461
C            8.90368231085868       -1.50932224731458       -0.04826464661199
C            7.55655152812161       -1.91775925127551       -0.06316097743434
C            6.58386872339203       -0.95085841468713       -0.02968849444943
C            6.97504633590682        0.40782795228860        0.01801102639357
C           -1.70231371770987        0.39559815127485       -0.73609752924431
C           -3.05037049703851        0.68007740192048       -0.73731666481842
C           -7.42051534262917       -0.71944319745705        0.77759108345518
C           -8.34764063810357       -1.74292892915348        0.80536031305555
H           -8.84419053031572       -3.71574051476556        0.13334048451679
H           -6.76803066259779       -3.96760205988030       -1.18021789632103
H           -5.11935339647817       -2.14532309728494       -1.25029831924797
H           -4.16940065813691        2.22496921664948        1.24645476408766
H           -4.92755417330477        4.56265957008265        1.19185279466222
H           -6.93897554900127        5.18740234290988       -0.09803670697488
H           -8.18092149350003        3.45159913557594       -1.34051955325562
H           -7.41497620464513        1.11583439552291       -1.30270766355787
H           -4.11619948534584       -1.80369970797895        1.29318379783537
H           -1.72274839125812       -2.31036967153575        1.28145443116273
H           -0.04855681635885       -3.12122135500418       -0.11795169573425
H            2.36144942143546       -3.65893381925009       -0.12486165647283
H            0.87480411019680        1.06027844903581        0.05226276209834
H            5.28481493007868        3.34702284248759        0.12019269046782
H            7.61310823483183        4.15271696290122        0.14952474180151
H            9.51484311288642        2.62214445514704        0.09688749950060
H           10.32930305706748        0.07655258101172        0.00802708353063
H            9.66843825562915       -2.27262227697727       -0.07468153526150
H            7.30464745953791       -2.96627901334576       -0.09998569852022
H           -1.03171955243615        1.00525558986702       -1.32311551093444
H           -3.42736097194899        1.51422677400976       -1.31077896439642
H           -7.59696930301075        0.19140769155295        1.33087368559656
H           -9.25199025021696       -1.62566462655830        1.38422082357629
