  82
       -133.71659356
 N          3.3361339199        1.1227844212        1.6384030940
 C          2.4059079096        0.7863359564        1.0476502608
 C          1.2520208016        0.3750200499        0.3740403778
 C          0.3270874197        1.3271854607       -0.1279832258
 N          0.6619557565        2.6878419352       -0.0811188742
 C          1.8416942917        3.2731753916       -0.4944743979
 C          2.8734064219        2.5875566939       -1.2538016355
 C          2.5608016542        1.6220537549       -2.2099944220
 C          3.5693440659        1.0190008098       -2.9391073171
 C          4.8929108834        1.3668423857       -2.7203658279
 C          5.2069087418        2.3341020767       -1.7785543780
 C          4.2051730278        2.9490589990       -1.0541922090
 N          1.9001679796        4.5444699265       -0.1979131055
 C          0.7295015553        4.8537645560        0.4255620236
 C          0.2726397751        6.0619879410        0.9447598468
 C         -0.9718293866        6.0743164700        1.5360791776
 C         -1.7532846363        4.9191830421        1.6222715195
 C         -1.3200244283        3.7091282872        1.1150619066
 C         -0.0777593345        3.6915530170        0.5065888371
 C         -0.8826814425        0.9272071867       -0.6436198378
 C         -1.1956765499       -0.4416105345       -0.7423170947
 N         -2.4072082478       -0.8326078800       -1.2888563367
 C         -3.6547425665       -0.2391422833       -1.0666512947
 C         -4.0300738029        0.5379569371        0.0447286206
 C         -3.2774607892        0.6162794546        1.2459528445
 C         -3.7402565520        1.3546783004        2.3075996682
 C         -4.9435731626        2.0527761624        2.2236246635
 C         -5.7088533583        1.9669480659        1.0594062114
 C         -5.2761588291        1.2204606951       -0.0045260273
 N         -4.5573902454       -0.6442115803       -2.0009958233
 C         -3.9565555747       -1.5709654085       -2.7331131285
 C         -4.4499492079       -2.3286425874       -3.8162406903
 C         -3.5762765550       -3.1614267116       -4.4671168352
 C         -2.2324280104       -3.2690852084       -4.0811773656
 C         -1.7186177776       -2.5487894423       -3.0065447470
 C         -2.5845999522       -1.7254345518       -2.3240469150
 C         -0.2628033380       -1.3951167065       -0.3155442278
 C          0.9258595434       -0.9984961677        0.2582509629
 N          1.7996269521       -1.9684249508        0.7676337891
 C          1.4658096987       -3.0135934676        1.6045400210
 C          0.1613329630       -3.1721457093        2.2273784020
 C         -0.5796726690       -2.0798596192        2.6784513734
 C         -1.8149192581       -2.2765109498        3.2658132217
 C         -2.3221615285       -3.5576242049        3.4145398834
 C         -1.5777530988       -4.6484375124        2.9951349594
 C         -0.3409778152       -4.4602934146        2.4091210081
 N          2.4636301763       -3.8342467653        1.8040721167
 C          3.5225058559       -3.3332902227        1.1078951721
 C          4.8223766170       -3.8134020126        0.9725583368
 C          5.6845871954       -3.1029584440        0.1663254095
 C          5.2761488133       -1.9465670602       -0.5033712898
 C          3.9910985850       -1.4532694894       -0.3866598764
 C          3.1262692196       -2.1467627582        0.4409740080
 H          1.5301517991        1.3575038682       -2.4013309357
 H          3.3207840527        0.2733530841       -3.6806028447
 H          5.6758466015        0.8864236271       -3.2882147909
 H          6.2371428486        2.6091939114       -1.6105997756
 H          4.4299195269        3.7042946200       -0.3187416388
 H          0.8834616554        6.9474426981        0.8788162659
 H         -1.3569909883        6.9957112126        1.9464380090
 H         -2.7223723355        4.9709376100        2.0955629410
 H         -1.9277398403        2.8206901838        1.1922756716
 H         -1.5810627920        1.6604054166       -1.0175173211
 H         -2.3684258030        0.0437217703        1.3458558574
 H         -3.1644221946        1.3947899837        3.2217270549
 H         -5.2870812503        2.6420189386        3.0595375412
 H         -6.6490669516        2.4948472050        0.9999380242
 H         -5.8534849728        1.1401529828       -0.9112477059
 H         -5.4851558353       -2.2413485479       -4.1011590267
 H         -3.9229657053       -3.7530506324       -5.3011865743
 H         -1.5775108503       -3.9255262094       -4.6331507564
 H         -0.6766488640       -2.6311675083       -2.7378423177
 H         -0.5007508762       -2.4456103260       -0.3813762757
 H         -0.1752799062       -1.0810194133        2.5974511171
 H         -2.3848042069       -1.4282743508        3.6153723159
 H         -3.2909852460       -3.7038827470        3.8681523132
 H         -1.9636062816       -5.6484592883        3.1256937513
 H          0.2535860177       -5.2981097495        2.0797974362
 H          5.1277095561       -4.7091626683        1.4884678746
 H          6.7014278042       -3.4447627368        0.0437914453
 H          5.9822703100       -1.4209654133       -1.1280500665
 H          3.6859789728       -0.5635616082       -0.9140496125
