  93
       -141.69212031
 C         -4.1472983004       -2.4158887789        1.2304376521
 C         -4.2346033773       -2.6134775360       -0.2999325212
 C         -5.7073020800       -2.7716593498       -0.6772212969
 C         -3.4061624891       -3.8287338490       -0.6533373042
 C         -3.9403319900       -5.0839680969       -0.8932441059
 C         -3.1254519536       -6.1819057090       -1.1136740859
 C         -1.7490354667       -6.0329368707       -1.0984704930
 C         -1.1940184336       -4.7893666983       -0.8830253749
 C         -2.0121626400       -3.6794569861       -0.6596102579
 N         -1.4430356699       -2.4190789994       -0.5045462812
 C         -0.0951189621       -2.3675001738       -0.0808515082
 C          0.2230986332       -2.9267707446        1.1621310492
 C          1.5190916017       -2.9419839783        1.6128388881
 C          2.5552464756       -2.3715565191        0.8519378684
 C          3.9171719943       -2.4713118574        1.3849564423
 O          4.1781226821       -3.2406224491        2.3277036823
 C          4.9670363891       -1.6657897378        0.7646623210
 C          6.3298705955       -1.9641391233        1.0002212761
 C          7.2857279122       -1.2089039677        0.3587721206
 C          6.9123446702       -0.1576422323       -0.4765264718
 C          5.5466695279        0.1187257896       -0.6000748395
 C          5.0079726753        1.2204332093       -1.4262495858
 O          5.5982458963        1.7096154182       -2.3762789926
 C          3.6498466329        1.6417577815       -0.9932317759
 C          3.4002502445        1.9000345800        0.3544400628
 C          2.1452808123        2.2894087702        0.7710705635
 C          1.1017461784        2.3843410893       -0.1462790045
 N         -0.1936279669        2.7653190296        0.2946447950
 C         -0.8802336373        1.9437352045        1.1753881430
 C         -0.3207437103        0.7239749664        1.5777196207
 C         -0.9767595621       -0.0999764348        2.4648155259
 C         -2.2220336253        0.2574818913        2.9513871700
 C         -2.7917638376        1.4452533720        2.5352679657
 C         -2.1468410053        2.3036162242        1.6558993670
 C         -2.8263945775        3.5969460439        1.2602006500
 C         -2.9710024217        4.4778283324        2.5177290736
 C         -4.2149090940        3.2726489409        0.6819862853
 C         -2.0120573081        4.3720463364        0.2465594635
 C         -2.5099824107        5.5675876463       -0.2540899341
 C         -1.7824322164        6.3624149840       -1.1194330846
 C         -0.5005192942        5.9771324701       -1.4733508851
 C          0.0199363557        4.7971286696       -0.9897998503
 C         -0.7321094301        3.9623181916       -0.1525845489
 C          1.3450198861        2.1191942989       -1.4917433131
 C          2.6146199452        1.7763848294       -1.9136918301
 N          4.6446227260       -0.6319636587        0.0082478244
 C          2.2333996111       -1.8593484417       -0.4096555157
 C          0.9367129923       -1.8676384790       -0.8753637463
 C         -2.1788555048       -1.3049108959       -0.8829425883
 C         -1.5679686799       -0.0991294886       -1.2317082891
 C         -2.3143333255        0.9442594253       -1.7391026662
 C         -3.6799361658        0.8041285513       -1.9080217448
 C         -4.3042809456       -0.3555704378       -1.4794356553
 C         -3.5822888544       -1.4052389473       -0.9395500065
 H         -4.7109338024       -1.5324636230        1.5228692322
 H         -3.1160125438       -2.2794571571        1.5461688926
 H         -4.5577526997       -3.2842403429        1.7416790237
 H         -6.1381767537       -3.6228957532       -0.1570970637
 H         -5.8223767415       -2.9155959512       -1.7491368299
 H         -6.2716839731       -1.8945383602       -0.3721129165
 H         -5.0086616540       -5.2250589178       -0.9033318301
 H         -3.5666227573       -7.1503565717       -1.2930176177
 H         -1.1059129272       -6.8827344377       -1.2686043118
 H         -0.1222779769       -4.6659993565       -0.9018015651
 H         -0.5682442428       -3.3603245970        1.7577977490
 H          1.7747196109       -3.3822821031        2.5649228892
 H          6.5651306172       -2.7849913132        1.6586799023
 H          8.3336222962       -1.4327271249        0.5001074593
 H          7.6268224423        0.4516399133       -1.0047432991
 H          4.2016007274        1.8223002595        1.0731314763
 H          1.9599688325        2.5186211686        1.8102024436
 H          0.6395876228        0.4153366104        1.1963459187
 H         -0.5078075918       -1.0205536683        2.7743642007
 H         -2.7443443360       -0.3800229959        3.6481703899
 H         -3.7647533387        1.7120963581        2.9178778702
 H         -3.4985812657        5.3985217608        2.2841803675
 H         -1.9878558993        4.7346541519        2.9076416431
 H         -3.5210344494        3.9530498599        3.2941359410
 H         -4.6960055438        4.1656190831        0.2945262725
 H         -4.8618676084        2.8488513706        1.4444518822
 H         -4.1173263623        2.5506087172       -0.1251434710
 H         -3.4926983414        5.8989252187        0.0446955128
 H         -2.2034891108        7.2817950138       -1.4957629647
 H          0.0995048648        6.5984319816       -2.1204843078
 H          1.0292894037        4.5239926836       -1.2519466583
 H          0.5386813793        2.1938399675       -2.2065385707
 H          2.8100220672        1.5861531167       -2.9582189448
 H          3.0138400718       -1.4737395636       -1.0467887340
 H          0.7301279985       -1.5319805704       -1.8807923685
 H         -0.5048409148        0.0191628272       -1.1146629643
 H         -1.8303925749        1.8683761187       -2.0182830852
 H         -4.2616975083        1.5976831868       -2.3528187748
 H         -5.3759135685       -0.4241801692       -1.5674724006
