  51
  -92.7695141800000       0.415243122741488      !
 Cl        -0.2567944507        3.8971434933        1.7991559725
 C         -0.1642941169        2.3312049504        1.1137337048
 N         -1.3063780619        1.7506309684        0.8331470506
 C         -1.3347392485        0.5389191271        0.2867560932
 N         -2.5782558134        0.0021938367        0.0423887388
 C         -2.9834088842       -1.3067151609        0.2760580792
 C         -2.3237177186       -2.3343526056        0.9306169142
 C         -2.9799519759       -3.5451526499        1.0624326977
 C         -4.2698182630       -3.7282011491        0.5744374011
 C         -4.9523499948       -2.6902599300       -0.0303919579
 C         -4.3121889589       -1.4671711659       -0.1715478100
 C         -4.7374499940       -0.1871014004       -0.6745556985
 C         -5.9221122776        0.2662296693       -1.2386330630
 C         -6.0087922482        1.5932782219       -1.6127218929
 C         -4.9337304476        2.4593441942       -1.4344792773
 C         -3.7431245419        2.0276727279       -0.8776193266
 C         -3.6567606051        0.7003527904       -0.4953869945
 C         -0.1419568775       -0.1114659656       -0.0733178838
 Cl        -0.1495260403       -1.5318657316       -1.0594760801
 C          1.0840575183        0.4738131791        0.2619022828
 N          2.2812672568       -0.1493017944       -0.0538887381
 C          2.6722717217       -1.4081462296        0.3712577271
 C          2.0230172496       -2.2889879847        1.2201238642
 C          2.6555022496       -3.4830104079        1.5135195396
 C          3.9085693433       -3.7870473219        0.9885029061
 C          4.5716393367       -2.8971041829        0.1658631578
 C          3.9539382201       -1.6935498117       -0.1459292876
 C          4.3453348315       -0.5523086652       -0.9297868525
 C          5.4672874107       -0.2560678614       -1.6919145195
 C          5.5123631249        0.9526526043       -2.3589896980
 C          4.4509626910        1.8510728636       -2.2898143832
 C          3.3220010567        1.5768700896       -1.5398860165
 C          3.2891676853        0.3797517801       -0.8436471565
 C          1.0706626469        1.7240769587        0.9018848852
 Cl         2.5364457318        2.4656730964        1.4156623953
 H         -1.3369177890       -2.1992849301        1.3440295551
 H         -2.4807337631       -4.3620360128        1.5615752248
 H         -4.7473866965       -4.6891798048        0.6908679809
 H         -5.9665497600       -2.8192115925       -0.3760969675
 H         -6.7540740051       -0.4068356954       -1.3794604558
 H         -6.9231325642        1.9681348891       -2.0477067462
 H         -5.0316349127        3.4918977406       -1.7337306038
 H         -2.9151928123        2.7017100168       -0.7308098155
 H          1.0614504157       -2.0492289409        1.6476770986
 H          2.1694016731       -4.1910557282        2.1677362258
 H          4.3708879345       -4.7293687098        1.2405976442
 H          5.5518447631       -3.1257294078       -0.2237722109
 H          6.2821190715       -0.9602167928       -1.7625719897
 H          6.3778822222        1.2045325466       -2.9530150825
 H          4.5073651874        2.7803404925       -2.8364423188
 H          2.4957416811        2.2704772500       -1.5051308937
  51
  -92.7695028800000       0.410307379505588      !
 Cl        -0.2804921949        1.3466828740        4.0889020038
 C         -0.1775846943        0.8476176123        2.4544872061
 N         -1.3159385163        0.6464088694        1.8348697836
 C         -1.3351123205        0.2489048616        0.5663507572
 N         -2.5743152576        0.0740463878       -0.0074079990
 C         -3.6516876301       -0.5636494563        0.6017133520
 C         -3.7426695514       -1.1223994697        1.8645102867
 C         -4.9281061412       -1.7492065608        2.2050525544
 C         -5.9932878003       -1.8235583818        1.3119344661
 C         -5.9022075920       -1.2714668000        0.0488723262
 C         -4.7225461868       -0.6349537412       -0.3126402248
 C         -4.2921803602        0.0387832477       -1.5099450130
 C         -4.9223237731        0.3349895590       -2.7103425608
 C         -4.2351021887        1.0754445604       -3.6530150739
 C         -2.9501660766        1.5427632488       -3.3956410875
 C         -2.3042400999        1.2588291466       -2.2057144702
 C         -2.9691430132        0.4725983732       -1.2786084244
 C         -0.1389426953       -0.0363295157       -0.1132508143
 Cl        -0.1419498789       -0.8369264209       -1.6455518535
 C          1.0837228516        0.2131084728        0.5202862698
 N          2.2838415827       -0.0382018363       -0.1259730779
 C          3.2720254405       -0.9098745547        0.3023610204
 C          3.2887389536       -1.7438700402        1.4082347343
 C          4.3984281329       -2.5496376916        1.5863501404
 C          5.4562582047       -2.5392894779        0.6811112282
 C          5.4268929611       -1.7319241255       -0.4392894021
 C          4.3250379985       -0.9109574045       -0.6375027333
 C          3.9526752887        0.0122070846       -1.6764380257
 C          4.5765288237        0.4491535275       -2.8371583839
 C          3.9325594105        1.3868269834       -3.6210391034
 C          2.6928114627        1.9022331726       -3.2523010967
 C          2.0546586725        1.4850576252       -2.0989232493
 C          2.6842107634        0.5226278432       -1.3272955251
 C          1.0622730652        0.6968371656        1.8385760358
 Cl         2.5248548296        1.0996503375        2.6509204642
 H         -2.9214393268       -1.0576263685        2.5596458566
 H         -5.0289607976       -2.1889851728        3.1858861512
 H         -6.9027105621       -2.3205888596        1.6146153768
 H         -6.7263110243       -1.3323690860       -0.6453737163
 H         -5.9319852466        0.0013662069       -2.8943121415
 H         -4.7052904050        1.3140163508       -4.5949693307
 H         -2.4473569137        2.1468725505       -4.1358303941
 H         -1.3214219917        1.6561572996       -2.0077761146
 H          2.4649244682       -1.7710028473        2.1051052562
 H          4.4420754951       -3.2039955026        2.4439947403
 H          6.3055148752       -3.1824461810        0.8557681739
 H          6.2379610645       -1.7403002220       -1.1514131362
 H          5.5460886732        0.0648903239       -3.1148630675
 H          4.3987901065        1.7361150714       -4.5298026956
 H          2.2213941293        2.6461753762       -3.8767943170
 H          1.1037926285        1.9040675812       -1.8064840698
  51
  -92.7680409500000       8.734797033490119E-002 !
 Cl        -0.1448811383        2.6329217853        3.3846786171
 C         -0.1017960007        1.6105340715        2.0133215899
 N         -1.2590997868        1.1836032321        1.5676468656
 C         -1.3228930593        0.3718945596        0.5175279671
 N         -2.5833061129       -0.0100636299        0.1108127212
 C         -3.5846903914       -0.4689333631        0.9608275546
 C         -3.5639410599       -0.6297461467        2.3351623732
 C         -4.6917137042       -1.1598728518        2.9358278363
 C         -5.8078087287       -1.5268016915        2.1890006714
 C         -5.8277356146       -1.3726917116        0.8163732794
 C         -4.7081229292       -0.8383385468        0.1931114830
 C         -4.3915169885       -0.5348067215       -1.1779592415
 C         -5.1132953643       -0.6218424805       -2.3601629630
 C         -4.5289135153       -0.1671674015       -3.5265935865
 C         -3.2567774498        0.3964279493       -3.5155677104
 C         -2.5194470598        0.4924946566       -2.3488200733
 C         -3.0804779449       -0.0118019912       -1.1862984761
 C         -0.1523857408       -0.0877754843       -0.1097471839
 Cl        -0.2074232099       -1.2537007450       -1.3828600122
 C          1.0890449488        0.3735915794        0.3424172394
 N          2.2729040460       -0.0485374605       -0.2481025223
 C          2.7465005441       -1.3487551308       -0.2887556324
 C          2.2118596001       -2.4960535666        0.2744546052
 C          2.9121949193       -3.6767997476        0.1091144008
 C          4.1187901136       -3.7140662860       -0.5848157940
 C          4.6688084415       -2.5656768374       -1.1201786844
 C          3.9831143887       -1.3678540660       -0.9691960048
 C          4.2615201309       -0.0109782045       -1.3574610135
 C          5.2981660752        0.5911845490       -2.0578577887
 C          5.2440798985        1.9541080230       -2.2760528108
 C          4.1692631016        2.7131623543       -1.8203444541
 C          3.1228072183        2.1356943494       -1.1250653736
 C          3.1880684519        0.7732304904       -0.8836016513
 C          1.1135844508        1.2617901562        1.4290818703
 Cl         2.6098102031        1.8261819580        2.0620121833
 H         -2.7033259011       -0.3372788183        2.9150127493
 H         -4.7069026179       -1.2892648735        4.0077269985
 H         -6.6693652805       -1.9370660603        2.6940115695
 H         -6.6913781612       -1.6610536937        0.2368908998
 H         -6.1140810961       -1.0255245219       -2.3608594188
 H         -5.0715307016       -0.2280362944       -4.4577848833
 H         -2.8373740117        0.7761279858       -4.4350523229
 H         -1.5481686287        0.9624575911       -2.3498077479
 H          1.2856090583       -2.4711161832        0.8285645739
 H          2.5161778808       -4.5879048577        0.5318470138
 H          4.6346949578       -4.6559861399       -0.6938711444
 H          5.6139111412       -2.5927068771       -1.6405701115
 H          6.1246622968        0.0022761943       -2.4250861054
 H          6.0421030525        2.4419747095       -2.8150643444
 H          4.1498925110        3.7746582463       -2.0165088629
 H          2.2858287320        2.7268907880       -0.7851258884
  51
  -92.7680382800000       8.710152741802293E-002 !
 Cl        -0.3299965931        3.1462963715        2.8778747841
 C         -0.2138872651        1.8653695255        1.7491330148
 N         -1.3417817398        1.4370548797        1.2350936691
 C         -1.3480867436        0.4579921958        0.3365656863
 N         -2.5826804856        0.0573121984       -0.1269511759
 C         -3.0501870052       -1.2459411199       -0.2429371072
 C         -2.4729104423       -2.4334323743        0.1776937887
 C         -3.1821810269       -3.6037036706       -0.0264471099
 C         -4.4432482287       -3.5958020766       -0.6143663617
 C         -5.0447125412       -2.4089170350       -0.9863210546
 C         -4.3509352142       -1.2229805945       -0.7907581365
 C         -4.6926044061        0.1610518529       -0.9905227637
 C         -5.8163143994        0.8013324626       -1.4952753922
 C         -5.8242336839        2.1820377134       -1.5400037859
 C         -4.7312424750        2.9202485668       -1.0944277702
 C         -3.6003140371        2.3029147552       -0.5907450586
 C         -3.5938703177        0.9199895563       -0.5381289361
 C         -0.1454868227       -0.1046557915       -0.1237442164
 Cl        -0.1223119864       -1.2693158600       -1.3990546616
 C          1.0645511533        0.3264572279        0.4313463444
 N          2.2785613754       -0.2055640521        0.0162986234
 C          3.1698999831       -0.8899029679        0.8247050248
 C          3.0415107661       -1.2589594006        2.1537267642
 C          4.0790191734       -1.9748311153        2.7219876494
 C          5.2070594389       -2.3261157801        1.9848747648
 C          5.3247296036       -1.9810096291        0.6525727373
 C          4.2974712452       -1.2586640451        0.0603141635
 C          4.0773475183       -0.7528991692       -1.2682089167
 C          4.8288260985       -0.7719193339       -2.4355476673
 C          4.3228214078       -0.1451179694       -3.5575652332
 C          3.0943023300        0.5094032370       -3.5224468673
 C          2.3282298833        0.5433423653       -2.3718025306
 C          2.8203895349       -0.1105033829       -1.2540706350
 C          1.0274743559        1.3325098719        1.4095274147
 Cl         2.4835583788        1.9365544051        2.0969679201
 H         -1.5110296539       -2.4527149312        0.6659595901
 H         -2.7493224230       -4.5418247014        0.2868190663
 H         -4.9641224372       -4.5300686384       -0.7597922636
 H         -6.0378400347       -2.3977527584       -1.4084599687
 H         -6.6620593256        0.2288639429       -1.8443472102
 H         -6.6897653912        2.7001628713       -1.9250160773
 H         -4.7670453317        3.9982893977       -1.1409715506
 H         -2.7579240209        2.8756233805       -0.2374426007
 H          2.1639254360       -0.9986893980        2.7263160589
 H          4.0110596593       -2.2694502663        3.7584221540
 H          5.9965709518       -2.8841798038        2.4648632473
 H          6.1931387252       -2.2673816803        0.0793855488
 H          5.7901683715       -1.2619152519       -2.4590206738
 H          4.8905019449       -0.1507849902       -4.4757522149
 H          2.7330964346        1.0053740569       -4.4108270215
 H          1.3842217235        1.0666432342       -2.3465549269
