  51
        -92.76951418
 Cl        -0.2567944507        3.8971434933        1.7991559725
 C         -0.1642941169        2.3312049504        1.1137337048
 N         -1.3063780619        1.7506309684        0.8331470506
 C         -1.3347392485        0.5389191271        0.2867560932
 N         -2.5782558134        0.0021938367        0.0423887388
 C         -2.9834088842       -1.3067151609        0.2760580792
 C         -2.3237177186       -2.3343526056        0.9306169142
 C         -2.9799519759       -3.5451526499        1.0624326977
 C         -4.2698182630       -3.7282011491        0.5744374011
 C         -4.9523499948       -2.6902599300       -0.0303919579
 C         -4.3121889589       -1.4671711659       -0.1715478100
 C         -4.7374499940       -0.1871014004       -0.6745556985
 C         -5.9221122776        0.2662296693       -1.2386330630
 C         -6.0087922482        1.5932782219       -1.6127218929
 C         -4.9337304476        2.4593441942       -1.4344792773
 C         -3.7431245419        2.0276727279       -0.8776193266
 C         -3.6567606051        0.7003527904       -0.4953869945
 C         -0.1419568775       -0.1114659656       -0.0733178838
 Cl        -0.1495260403       -1.5318657316       -1.0594760801
 C          1.0840575183        0.4738131791        0.2619022828
 N          2.2812672568       -0.1493017944       -0.0538887381
 C          2.6722717217       -1.4081462296        0.3712577271
 C          2.0230172496       -2.2889879847        1.2201238642
 C          2.6555022496       -3.4830104079        1.5135195396
 C          3.9085693433       -3.7870473219        0.9885029061
 C          4.5716393367       -2.8971041829        0.1658631578
 C          3.9539382201       -1.6935498117       -0.1459292876
 C          4.3453348315       -0.5523086652       -0.9297868525
 C          5.4672874107       -0.2560678614       -1.6919145195
 C          5.5123631249        0.9526526043       -2.3589896980
 C          4.4509626910        1.8510728636       -2.2898143832
 C          3.3220010567        1.5768700896       -1.5398860165
 C          3.2891676853        0.3797517801       -0.8436471565
 C          1.0706626469        1.7240769587        0.9018848852
 Cl         2.5364457318        2.4656730964        1.4156623953
 H         -1.3369177890       -2.1992849301        1.3440295551
 H         -2.4807337631       -4.3620360128        1.5615752248
 H         -4.7473866965       -4.6891798048        0.6908679809
 H         -5.9665497600       -2.8192115925       -0.3760969675
 H         -6.7540740051       -0.4068356954       -1.3794604558
 H         -6.9231325642        1.9681348891       -2.0477067462
 H         -5.0316349127        3.4918977406       -1.7337306038
 H         -2.9151928123        2.7017100168       -0.7308098155
 H          1.0614504157       -2.0492289409        1.6476770986
 H          2.1694016731       -4.1910557282        2.1677362258
 H          4.3708879345       -4.7293687098        1.2405976442
 H          5.5518447631       -3.1257294078       -0.2237722109
 H          6.2821190715       -0.9602167928       -1.7625719897
 H          6.3778822222        1.2045325466       -2.9530150825
 H          4.5073651874        2.7803404925       -2.8364423188
 H          2.4957416811        2.2704772500       -1.5051308937
