141
 energy: -221.468624600241 gnorm: 0.000054518978 xtb: 6.7.1 (edcfbbe)
C           -7.01469821506098        0.28881258285586       -3.02029520898725
C           -5.83791771666690       -0.54771812817456       -3.55740841243241
C           -6.05489393988110       -0.87941609267939       -5.04768447237110
C           -4.57387986725737        0.27001445633288       -3.40960255472740
C           -4.46660835659011        1.48233162025731       -4.07710103053545
C           -3.35348891320738        2.29245411529061       -3.95397471155273
C           -2.33031169149487        1.91274804804188       -3.10024686563808
C           -2.41624502755499        0.72266413880513       -2.41444672614272
C           -3.50962002150881       -0.13844256265602       -2.58986891675381
N           -3.53659413298538       -1.36353118181375       -1.94477419732044
C           -2.42200615884840       -1.75769008199698       -1.16061879936795
C           -1.16295508856820       -1.91589814803282       -1.74310752229851
C           -0.07852124698113       -2.23988694847466       -0.96062082548367
C           -0.17555751620650       -2.45278420613232        0.42916466963006
C           -1.48558844225748       -2.41294359603823        0.96539720423660
C           -2.57719060541384       -2.02561424238173        0.19895951698339
O           -1.80155751605424       -2.73703880672272        2.25412218028363
C           -0.85242691586336       -3.16495741490809        3.13536058513117
C           -1.29010894307045       -3.62526342202902        4.36984870930348
C           -0.35731415092846       -4.03726486945544        5.31001726888900
C            0.99914122060354       -3.97911068697538        5.03505069915404
C            1.42295126406426       -3.51968504981152        3.79258463136193
C            0.50836109231524       -3.12382195864605        2.80600976910547
B            0.97865295187747       -2.70085545222084        1.41527454933004
C            2.51008098371912       -2.53777911770794        1.30708040141428
C            3.21273316041808       -1.96387998602921        0.23731631567383
C            4.58020792137135       -1.73863877270280        0.24705084595446
C            5.27240103338509       -0.99775104986937       -0.90382492443275
C            5.22389897386751        0.50350058060145       -0.67469820184541
C            6.26670026831190        1.32545801326557       -1.09705205559629
C            6.19172382864950        2.69154293066932       -0.90389817499273
C            5.05402228010583        3.26626504607801       -0.34324080448722
C            3.94180118514300        2.47729305433621        0.01583771976304
C            4.09690396982112        1.09247059893382       -0.12821064411907
B            2.67467146912327        3.21374226118587        0.50081468595111
C            1.22850382428611        2.75072635424211        0.76182046013245
C            0.69583234778872        1.47132362958675        0.51703410547791
C           -0.61754091400008        1.14898431996164        0.76797536940146
C           -1.48548176823632        2.11124927078812        1.27863245227821
N           -2.84510722015040        1.77035587134247        1.51885648203475
C           -3.83308117580492        2.28594502653165        0.70217390132892
C           -3.49638329791072        3.19083721679460       -0.31442505001041
C           -4.46292394469515        3.73753886360124       -1.12735000163338
C           -5.79077038793461        3.37944475757211       -0.95857070883872
C           -6.12660109502281        2.46563566594276        0.02309899296975
C           -5.17506573566435        1.90559682961171        0.86502483828406
C           -5.60843073555954        0.90043229367528        1.91029118523528
C           -6.63014657680886        1.57163823209877        2.85132928860196
C           -6.25987238531563       -0.30050150123262        1.19641625246095
C           -4.44186821673555        0.42110830044671        2.74769422243177
C           -4.66538165332438       -0.47279497279371        3.78636896799598
C           -3.64938847793830       -0.88842834465577        4.62633913062126
C           -2.36540172544155       -0.40018347091698        4.43867585528205
C           -2.11035977377934        0.47306553170248        3.40656628254082
C           -3.13349014376697        0.88555795650001        2.53973346434218
C           -1.00932791982643        3.39324113870140        1.53484630184019
C            0.31918046663512        3.70777543475723        1.27002326432573
O            0.64517688569418        5.00693909961205        1.54719005903089
C            1.86805096984380        5.52361826790762        1.23034202153591
C            2.05987758445000        6.88181531637908        1.44810083048293
C            3.28003471239859        7.45457405098518        1.12155824886482
C            4.29996933338991        6.69091321963529        0.57772620486361
C            4.09738035301632        5.33064284680166        0.37136368342587
C            2.88195112072512        4.71327525251900        0.70198728461461
O            5.12104671210625        4.62478616288216       -0.18268841108849
C            6.66180448913823       -1.56425040021531       -1.11321386071406
C            7.80779018394479       -1.39134833908454       -0.36181313693406
C            8.96476589297791       -2.06503211833671       -0.73225530853940
C            8.97938228473650       -2.89837644101667       -1.83991780143007
C            7.84798606837126       -3.04295222167305       -2.62633618301695
C            6.69555295779089       -2.36399256668039       -2.26596100784001
C            5.42724080049590       -2.22263095618236       -2.96210126330317
C            5.01068779328158       -2.71814315896269       -4.18682260081138
C            3.78703024986812       -2.30569682779545       -4.68951691738957
C            3.01306791161994       -1.38892070505312       -3.99554711594118
C            3.42249290384215       -0.89791019950941       -2.76190742708468
C            4.61482655467952       -1.34440613905234       -2.23044758437116
C            5.30085548955887       -2.15603321648546        1.36426628911816
C            4.65848914793140       -2.74782281765399        2.43399207152835
C            3.27831014543041       -2.91679658185246        2.42642710370052
O            2.76484283942956       -3.46428467178321        3.57183739706467
C           -4.60970218722659       -2.22843343907339       -2.07831615841856
C           -4.54712254897472       -3.51336462692812       -1.51743466322349
C           -5.62003294029859       -4.37298210708566       -1.58822333755789
C           -6.78170318499848       -3.97610664098790       -2.23250931683372
C           -6.82782028453731       -2.73492855879965       -2.83927729359257
C           -5.75691050501852       -1.85168438089597       -2.79456050295771
H           -7.14320052868155        1.19031907361957       -3.61159560939071
H           -6.81755177662809        0.57841281268557       -1.99085199790594
H           -7.93999433658717       -0.27844476757080       -3.05474074260031
H           -6.97536147553933       -1.43779741877731       -5.18903457160763
H           -6.11313034205225        0.02740413545806       -5.64189044547407
H           -5.22721251302426       -1.48119224553276       -5.41890224328269
H           -5.27249202340591        1.80850601315645       -4.71525277289015
H           -3.29340958866388        3.21877292387576       -4.50433830633893
H           -1.46548374397944        2.54399393558929       -2.96210173654503
H           -1.62557406908060        0.45382615042521       -1.73445745172152
H           -1.05035151824548       -1.77876528081613       -2.80857025005654
H            0.88348144953242       -2.35744303285996       -1.43290152411805
H           -3.54233768048982       -1.95056776150174        0.67549071874115
H           -2.34745381744388       -3.65708672569419        4.57857805696749
H           -0.69146456143742       -4.40019646512414        6.27010375572558
H            1.73292340924221       -4.28256039801837        5.76592406652338
H            2.63927031541409       -1.67118636437024       -0.62491431313045
H            7.14255517518708        0.90271060024604       -1.56571561596891
H            7.00965540678504        3.33634954946259       -1.19020926765979
H            3.29940435659875        0.45901008944046        0.22193775970681
H            1.33664897238259        0.70822849679863        0.10931219185643
H           -0.98357788662757        0.15191761743375        0.57890957627792
H           -2.46426398866116        3.46272629166797       -0.45903181715282
H           -4.17861910355362        4.44144098748858       -1.89377998985236
H           -6.55694314253597        3.80289999555244       -1.58910163463438
H           -7.16272787962683        2.18678528755233        0.13581223846760
H           -7.00125899564062        0.86355557406510        3.58598695120358
H           -6.16063303914731        2.40017925482934        3.37837047904134
H           -7.47701969002250        1.95669894457341        2.29142819051797
H           -6.50666769159607       -1.08482002830522        1.90598871547309
H           -5.57776890830349       -0.71048976354831        0.45437610199393
H           -7.17326502294235        0.00071543026763        0.69209048716644
H           -5.66117898050633       -0.85275923736039        3.95483180528988
H           -3.85900574338880       -1.57575949150495        5.43142910046829
H           -1.56322182256249       -0.70086235605793        5.09535755318436
H           -1.11126126228469        0.85519763839143        3.26869453404376
H           -1.65964391664667        4.15648734951960        1.93502035540913
H            1.25832275685497        7.47291977950838        1.86346691763441
H            3.43488807314728        8.50970322278007        1.28809199539574
H            5.24870272510381        7.13135666159901        0.31226244060324
H            7.82390633507589       -0.71819918862771        0.48423672888057
H            9.86603623538983       -1.93205029913696       -0.15094092842218
H            9.88801925138484       -3.42000107621079       -2.10442106332887
H            7.86925416919630       -3.66324325618007       -3.51027188257067
H            5.63354533839661       -3.40067870707697       -4.74598215857096
H            3.44504477167539       -2.68140070062095       -5.64330504384190
H            2.08262179536170       -1.04334683444687       -4.42234637795200
H            2.82726056814878       -0.15489682628396       -2.25087823698196
H            6.36814540951562       -2.02684492059587        1.41600298097721
H            5.21576720541467       -3.06693114732053        3.30258428023063
H           -3.64194847721867       -3.83884525468829       -1.03118353955669
H           -5.54700915382611       -5.35435302115399       -1.14435610816111
H           -7.63383060421071       -4.63642025169044       -2.28204058938882
H           -7.72427449925369       -2.45407516489815       -3.36947130842907
