141
 energy: -221.547476593945 gnorm: 0.000053641852 xtb: 6.7.1 (edcfbbe)
C           -6.40513444526792       -4.41548931631552       -4.12125495580741
C           -5.16066898755020       -3.89112778445070       -3.40230355843447
C           -4.06451410740930       -3.63138952128993       -4.46043246164517
C           -5.40654781158125       -2.57495930526475       -2.68743279641699
C           -6.43123200463074       -1.70943227723310       -3.03608828843216
C           -6.52410893485067       -0.43795128021390       -2.49485706500153
C           -5.55600353106997       -0.00128596343567       -1.61043352134479
C           -4.54401453356371       -0.85627007700872       -1.22258756857859
C           -4.48160777562284       -2.15848466726924       -1.71695233902671
N           -3.50666890046875       -3.04955437201774       -1.27681577066216
C           -2.48542602749636       -2.62674588918498       -0.38843806740219
C           -1.15634035443396       -2.67761545705577       -0.81050534467329
C           -0.14852960596044       -2.29434777912101        0.04391884870050
C           -0.38817473980860       -1.83661016928376        1.34817801392963
C           -1.73757333238974       -1.81776224556226        1.75610703098711
C           -2.76828901628991       -2.20648566469456        0.89751170210637
O           -2.16867892733940       -1.45734662862744        2.99524644382140
C           -1.30569593068365       -1.13082499132240        3.98737229767283
C           -1.84851045916399       -0.87226799885571        5.24046580333843
C           -1.00575491832450       -0.53857245640589        6.28564634133468
C            0.36212894235828       -0.44988130462017        6.09915226024658
C            0.89513230264537       -0.70589399770154        4.83987872679340
C            0.07652321163334       -1.06166249119730        3.75643865700471
B            0.67071150130245       -1.38129090528768        2.38632849847411
C            2.20634772921923       -1.18236377133574        2.31732113343145
C            3.01907172233561       -1.32240604913475        1.18316768247710
C            4.38278062621214       -1.08876610768890        1.17836398673890
C            5.19607721972919       -1.18238160088916       -0.11693662426093
C            5.11790652895557        0.11333994016468       -0.90327146531480
C            6.14372499542638        0.45762221744092       -1.78655997640623
C            6.08188751716748        1.62911371034091       -2.50562951364061
C            4.97406140435761        2.47198758904270       -2.38729503936135
C            3.88493327480934        2.11303113987136       -1.57321417348563
C            4.01338693101527        0.93742975025946       -0.82436353834123
B            2.66323490650689        3.05561738275804       -1.57248022511414
C            1.23555812224782        2.92320693844577       -0.99488634753045
C            0.64234324619750        1.76109475102601       -0.48182349023967
C           -0.62871790530312        1.74840789553789        0.04360027709867
C           -1.36757575022731        2.93216014180075        0.10193080995852
N           -2.65732991987951        2.94499012698932        0.68982835712185
C           -3.76574407672932        3.21295255124517       -0.10361694976283
C           -3.61786155137826        3.32201098898134       -1.49033092664862
C           -4.69283107607139        3.61940407844318       -2.30128317167464
C           -5.94655506751754        3.80056029175090       -1.74468159984594
C           -6.10594436755485        3.64290710228376       -0.38019787413038
C           -5.04061017493701        3.34104293701754        0.45889614763072
C           -5.29702603594976        3.13763771874444        1.93982091649111
C           -5.90024947946113        4.43017695945005        2.52259088812588
C           -6.28239250264351        1.96607260298708        2.11025368849431
C           -4.01885083713542        2.82415332078661        2.69458043798006
C           -4.07512742910689        2.62035332630660        4.06723376463631
C           -2.94231989357136        2.39066336946124        4.82486964667839
C           -1.70743236365982        2.38098596784003        4.20266025697934
C           -1.62378470802723        2.57280343481691        2.83999563790196
C           -2.77080136745924        2.77132350450767        2.06423131979961
C           -0.83121066079177        4.09481903109434       -0.42097835080618
C            0.44137775040709        4.08672750540202       -0.99413945353988
O            0.82057221413766        5.28047386653961       -1.52997716800142
C            1.98277624678961        5.42171748609420       -2.21769619421246
C            2.21780986595039        6.63807657233594       -2.84823259792171
C            3.39370669260936        6.81213988783946       -3.55903761251787
C            4.33833381552390        5.80450938952087       -3.64792568635238
C            4.10326033388375        4.59474022103794       -3.00215268699127
C            2.91966280041007        4.37998887726367       -2.27940449285082
O            5.05080124609424        3.63085095338103       -3.10365226233906
C            6.61139608375977       -1.62732733593390        0.19465164364463
C            7.65517194305619       -0.90787804606973        0.74131420252299
C            8.86258802573554       -1.55271949705675        0.97901310749120
C            9.02395139586086       -2.89508518120578        0.67246635940468
C            7.99570748806659       -3.61287798981729        0.08249492004739
C            6.79419647213005       -2.97026842332588       -0.16700138188255
C            5.61233597084484       -3.41769871215048       -0.88715143401611
C            5.34945576653809       -4.61294216580338       -1.53570153611188
C            4.18866377246845       -4.72132534065629       -2.28521603511501
C            3.32753915075087       -3.64293538180239       -2.41241891096868
C            3.58293843463451       -2.44517511553892       -1.75551021765282
C            4.70686046209866       -2.34929310314714       -0.96189706466777
C            4.98397386690014       -0.71965435958644        2.38230194802530
C            4.23402234372319       -0.58193557685532        3.52673943110073
C            2.85519274387719       -0.79544374548097        3.50438472048377
O            2.23725322337978       -0.59875034842450        4.70210471615855
C           -3.71723291773830       -4.41806606413573       -1.42430565413931
C           -3.08479573491266       -5.32259471829540       -0.57083186527439
C           -3.32721011805865       -6.67750985781645       -0.67749902591455
C           -4.22269624110191       -7.14467036245640       -1.62170286579436
C           -4.84796420920439       -6.24960092812099       -2.47400858276362
C           -4.59995212251655       -4.88765852946443       -2.40665697927143
H           -7.20845869948215       -4.61343299073353       -3.41466568333877
H           -6.17297306282524       -5.32951396423272       -4.66079194925845
H           -6.74854646312886       -3.69412978679488       -4.85756824944111
H           -3.81983066689092       -4.55564912113926       -4.98005614955171
H           -4.41207919624750       -2.89858523293063       -5.18590633446663
H           -3.16158616720577       -3.24815987161303       -3.99119861650943
H           -7.17325978063837       -2.01277246363459       -3.75641323983687
H           -7.33252871101362        0.21546162157358       -2.78659433039461
H           -5.58483045855225        1.00274493164591       -1.21635959026277
H           -3.79402241641364       -0.50574374056485       -0.53155075301203
H           -0.93251009064830       -3.03137492828019       -1.80544008062389
H            0.86788776254033       -2.36674571713853       -0.30308468229866
H           -3.78279972761245       -2.19259049060914        1.26715620370736
H           -2.91605036369795       -0.93627969751288        5.37678113928899
H           -1.42185133105004       -0.34186792536096        7.26201563950750
H            1.02334383175055       -0.18430636235650        6.90900761505426
H            2.54435226282601       -1.62452681614853        0.26770601846456
H            7.00153886881493       -0.18924462473158       -1.89495190907108
H            6.88650496705769        1.92151453113442       -3.16324319330821
H            3.21722715546408        0.69048184405521       -0.14220406326222
H            1.19400556381553        0.83642061420975       -0.51516516739875
H           -1.05605338087585        0.83305703935774        0.42444990067318
H           -2.64856730929260        3.16491902313657       -1.93697462036964
H           -4.54881875267778        3.70309454952307       -3.36843675265946
H           -6.79547891268118        4.04170239700623       -2.36663165308616
H           -7.09453060987275        3.75545382772118        0.03866932135502
H           -6.11949943131699        4.31364288723605        3.58019954349979
H           -5.19583050115255        5.25241816118535        2.40647826224118
H           -6.82216311542623        4.69329139034317        2.01151745138411
H           -6.50498041177927        1.79653463960188        3.16004566634236
H           -5.85193485673975        1.05490799561723        1.69863775301162
H           -7.21663142030299        2.16591018239446        1.59267270697922
H           -5.03161284349856        2.64764571958937        4.56697267530976
H           -3.02149422798560        2.23512820453090        5.88979062185764
H           -0.80570376231377        2.22464759231580        4.77578196747933
H           -0.65234256645892        2.57739162639522        2.37096942862203
H           -1.39478839228305        5.01567862825463       -0.41065213767237
H            1.48240414059316        7.42399165769170       -2.78019261785435
H            3.57696778416641        7.75377630247224       -4.05404407736099
H            5.25435016508119        5.94259085075303       -4.20019561347130
H            7.55288997099216        0.14699251612895        0.95522902282833
H            9.68687781353928       -0.99831542927647        1.40407984119999
H            9.96866829873647       -3.37912113386195        0.87445404335582
H            8.13470016977669       -4.64867773231458       -0.18961456553902
H            6.04231034767604       -5.43887913963707       -1.47274365062481
H            3.96629564190256       -5.64601009623038       -2.79801697842681
H            2.45121028754966       -3.73098079265592       -3.03800118194485
H            2.92589488641408       -1.59910650816410       -1.89877497885585
H            6.04467518588785       -0.54235172225565        2.43667009836149
H            4.69500842626843       -0.29673981896174        4.46039763205269
H           -2.40474264783220       -4.96044371757866        0.18513927736598
H           -2.82414542413298       -7.36386789572441       -0.01197715651894
H           -4.42940026686086       -8.20130557424240       -1.70451681717403
H           -5.53275037205305       -6.63897395390164       -3.20951067676218
