141
 energy: -221.469329719756 gnorm: 0.000060365015 xtb: 6.7.1 (edcfbbe)
C           -7.02132590595250       -4.59006417481242       -2.43180424877025
C           -5.66874121616906       -4.05678590273268       -2.94418208143190
C           -5.62626355352080       -4.11050499640154       -4.48431763928248
C           -5.51492262304898       -2.61524206282249       -2.50834760948746
C           -6.43510223867368       -1.66568338658668       -2.93175866994668
C           -6.32610643203471       -0.33283029040036       -2.57977306506053
C           -5.26403067919760        0.08190164393532       -1.79036453488012
C           -4.33956613220257       -0.83803552533515       -1.35106442460811
C           -4.45582450481334       -2.19421770851544       -1.68870891992211
N           -3.51942217663484       -3.09156216331050       -1.22143377516603
C           -2.48190128914708       -2.62914704101830       -0.35969679181426
C           -1.20990527667034       -2.37024046442894       -0.86166295527159
C           -0.20951392135611       -1.96254242844329       -0.00743352807980
C           -0.40422181898281       -1.79346604093004        1.37683969677825
C           -1.72069345723557       -2.01703690041282        1.84245285002821
C           -2.73861602060536       -2.43662634603935        0.99328004674197
O           -2.11937059273736       -1.85719238232126        3.14020661336013
C           -1.27151883450561       -1.38336069951338        4.09657899903940
C           -1.79952024970091       -1.18197561920281        5.36543735644781
C           -0.98050053608106       -0.69200762277631        6.37084129304027
C            0.34978175236032       -0.39764976553998        6.11885540842750
C            0.86640681782108       -0.61263151865074        4.84562579561123
C            0.07326197855246       -1.11868123102793        3.80565971186007
B            0.65573329173503       -1.37875690823138        2.41662991883146
C            2.17881957095344       -1.12881055881510        2.32938069331189
C            3.01130159280383       -1.38436655107251        1.22867559013161
C            4.34326686068421       -1.00815858145186        1.17078408350572
C            5.17475974425270       -1.16073097316016       -0.10809906992980
C            5.23598783459465        0.18458532875274       -0.80673811727751
C            6.34825626579983        0.58475962292505       -1.54274530362684
C            6.35451819271163        1.81790677256200       -2.16992890025099
C            5.24173915478398        2.65274885384716       -2.10188147493801
C            4.07044883844742        2.24582607099179       -1.43075934058554
C            4.12755244609291        1.01262530462077       -0.77418628693287
B            2.86600059025354        3.20499346361756       -1.44318073378597
C            1.40989863984844        3.05452832397051       -0.97394499557748
C            0.76764898561544        1.86412328501769       -0.58555877552120
C           -0.52417202146016        1.83349205256375       -0.11436142482765
C           -1.24624290485664        3.02057975075957       -0.00090986801608
N           -2.56146819071398        3.00572089392900        0.53670977513168
C           -3.63338206186083        3.30578040055222       -0.28161931756711
C           -3.41865750766086        3.55640976908259       -1.64576259632922
C           -4.46234581061187        3.89637343819779       -2.47689533320823
C           -5.75014385529707        3.98195789092593       -1.96910013003181
C           -5.97490991599586        3.68920955525754       -0.63628560221214
C           -4.94290657616185        3.33831140653897        0.22499090693014
C           -5.25966160405258        2.98032965851887        1.66061139334551
C           -5.93461241903125        4.18916295278070        2.33920465717079
C           -6.21261660036688        1.76859325858342        1.66537733138035
C           -4.01230295793725        2.62904899428555        2.44262302298207
C           -4.12246671283766        2.27106286923631        3.77985094565091
C           -3.01466671027356        1.99174973914143        4.55785653971690
C           -1.74895111749014        2.09077996452949        4.00077458978675
C           -1.60864185405223        2.43923571690293        2.67702833259926
C           -2.73091020234627        2.68549015404708        1.87103620946152
C           -0.67150112688669        4.21778556859471       -0.42222004001427
C            0.62299073935443        4.22873855918920       -0.92700454636660
O            1.04965527748197        5.45685186562240       -1.35422013443675
C            2.26669329144608        5.62830395081236       -1.95041201508670
C            2.55255026711099        6.88080961696794       -2.47799059558737
C            3.77967770619668        7.09307004859944       -3.08967985114648
C            4.72162038691659        6.07973048856945       -3.17087237348104
C            4.42902050482032        4.83294708287761       -2.62868980474972
C            3.19291005008529        4.57941739664308       -2.01593987468491
O            5.38560935843077        3.86648556749038       -2.72211305860810
C            6.51434785120677       -1.78893064995697        0.22213274446989
C            7.61822567376348       -1.24832223528922        0.85041759139084
C            8.72551354268525       -2.05423594146162        1.08371347904048
C            8.73548715941162       -3.38299992424274        0.69037590935191
C            7.65265274205264       -3.92297981054946        0.01556743643726
C            6.55175799010313       -3.11883853131880       -0.22834192115136
C            5.35655567781948       -3.37451276098844       -1.01501899658934
C            4.97805067142973       -4.48544473669781       -1.75143182322803
C            3.83315984993527       -4.40932080424035       -2.52809256753389
C            3.09652168026896       -3.23627114860820       -2.58794554703801
C            3.46634275037276       -2.12435886491748       -1.84212446636731
C            4.58150605788264       -2.20696985392266       -1.03386814836590
C            4.89744691890692       -0.38098691165991        2.28441673898237
C            4.14175890739910       -0.18112194379554        3.42200821423083
C            2.79997716904900       -0.54801539675542        3.45363426164088
O            2.17387498842973       -0.29367156272518        4.64400599543067
C           -3.55575179628106       -4.42848329642381       -1.55882669225734
C           -2.57726606086329       -5.29622001829034       -1.05174063304434
C           -2.58176568197624       -6.63357478022659       -1.37779698074701
C           -3.56726155395082       -7.13652743257614       -2.21392656008685
C           -4.54292641995423       -6.28775350294699       -2.70432816759707
C           -4.56450826838901       -4.93470557426600       -2.39416036280318
H           -7.04742914349587       -4.55350804550799       -1.34423116907794
H           -7.17298889433383       -5.61883827669686       -2.74467246006304
H           -7.84177991045749       -3.99147107965412       -2.81633636000857
H           -5.74458674251340       -5.13011096534872       -4.83855930865731
H           -6.42041069170270       -3.50683712561492       -4.91325108289890
H           -4.67188431040856       -3.72943240831525       -4.84310861974957
H           -7.26101490497881       -1.96898717974135       -3.55594212356187
H           -7.05919558496546        0.37973085800768       -2.92448431975854
H           -5.15718920421611        1.12058519314422       -1.52148868679655
H           -3.50892969125678       -0.51877536116287       -0.74205520372050
H           -1.01903749740768       -2.49483095564139       -1.91738089679504
H            0.76425726617622       -1.75790062534925       -0.41875321265573
H           -3.72305831738662       -2.61339626353938        1.39937142780656
H           -2.83817122987485       -1.40848077868668        5.54920894305231
H           -1.38297647863387       -0.53422996081531        7.35994794419829
H            0.99402648994016       -0.00814706875199        6.89231902259856
H            2.57801656097636       -1.89814357018188        0.38769956883574
H            7.21493717669461       -0.05546384687286       -1.61512141498990
H            7.22365632905368        2.15512747562485       -2.71553955629975
H            3.27073514171507        0.71203585313307       -0.19392135399201
H            1.30635541449541        0.93511728874446       -0.66604749770077
H           -0.97699945839042        0.89767998696007        0.17866344318766
H           -2.42197947923130        3.47627682181386       -2.04822731972778
H           -4.27145164329104        4.09047230883666       -3.52137620576824
H           -6.57368803118189        4.25695834557079       -2.60987799626358
H           -6.98562618615053        3.73177575632252       -0.26200391438368
H           -6.18830225409339        3.95984114198984        3.36979092261403
H           -5.26008026554569        5.04351591922898        2.33375654950566
H           -6.84554743648942        4.46590106094693        1.81695882009138
H           -6.49193303525577        1.50390810031474        2.68063708948918
H           -5.72596040640914        0.91009024114464        1.20693516506323
H           -7.11887090058429        1.98761793730344        1.10883303102925
H           -5.09897206277731        2.21270160032106        4.23448984545677
H           -3.13233361138776        1.71220162116114        5.59287234786732
H           -0.87247893780650        1.89536094893420        4.59905073872396
H           -0.62002358582407        2.52769227217160        2.25643005798442
H           -1.22232917418373        5.14451052392397       -0.36475479399850
H            1.81941528905577        7.66958074620752       -2.40893855941909
H            4.00500146830783        8.06298216457299       -3.50625666055894
H            5.67873276624248        6.24261989292268       -3.64201662203132
H            7.65058655961347       -0.20544336608405        1.13096235003174
H            9.59322331959441       -1.63460380670136        1.57240920203762
H            9.60426402756510       -3.99372338806731        0.89026802503272
H            7.67319904767439       -4.94759839159744       -0.32553026511639
H            5.57060007120488       -5.38820372515585       -1.73211903535834
H            3.52261330125009       -5.26530794383685       -3.11003708556764
H            2.22722687962641       -3.18409881396652       -3.22725001450411
H            2.90273683638324       -1.20505019207359       -1.91362944059492
H            5.92107448763401       -0.04928044309524        2.27830611030598
H            4.57441929702069        0.27573534752234        4.30000994324814
H           -1.81387596621977       -4.90769693864482       -0.39660222332034
H           -1.81785810351397       -7.28363584705057       -0.97867970666439
H           -3.57888012328773       -8.18319303598150       -2.47690971156932
H           -5.30756191746337       -6.69804286091529       -3.34530918569168
