  141
       -221.47558428
 C         -6.2349241467       -4.1848965525       -4.2564813610
 C         -5.0466304439       -3.6586940798       -3.4526179949
 C         -3.9180075532       -3.2917659061       -4.4412708730
 C         -5.3737469998       -2.4018429930       -2.6702889938
 C         -6.4325109522       -1.5694568485       -2.9927066495
 C         -6.5971526012       -0.3402626251       -2.3768888431
 C         -5.6698177298        0.0872500178       -1.4457409506
 C         -4.6235714238       -0.7380834010       -1.0854510156
 C         -4.4890614876       -2.0027353671       -1.6561768041
 N         -3.4858435765       -2.8770473970       -1.2519015830
 C         -2.4741555687       -2.4664973270       -0.3528363473
 C         -1.1469772735       -2.4788966061       -0.7849388406
 C         -0.1399714744       -2.1140016541        0.0766760033
 C         -0.3769477388       -1.7203248832        1.4021756190
 C         -1.7237683239       -1.7390751516        1.8205467024
 C         -2.7543258315       -2.1042600544        0.9504728598
 O         -2.1490892802       -1.4500096814        3.0769086942
 C         -1.2890960498       -1.1074149399        4.0632564748
 C         -1.8245860428       -0.8973435235        5.3287714925
 C         -0.9846183284       -0.5352030762        6.3664049542
 C          0.3738168814       -0.3722985836        6.1625129037
 C          0.9033055353       -0.5928574137        4.8950243779
 C          0.0868537341       -0.9786099622        3.8199943212
 B          0.6796030926       -1.2795264025        2.4472068813
 C          2.2140614570       -1.0801617419        2.3806968642
 C          3.0310061317       -1.2699918067        1.2586564840
 C          4.3883159102       -1.0076930741        1.2392239633
 C          5.1981333991       -1.1474333525       -0.0532572234
 C          5.1255664236        0.1280968713       -0.8695744298
 C          6.1665624288        0.4810328105       -1.7299578691
 C          6.0876895837        1.6279170700       -2.4869394343
 C          4.9482080154        2.4343195702       -2.4315146665
 C          3.8500470161        2.0622862750       -1.6358937402
 C          3.9936592143        0.9172665373       -0.8465985004
 B          2.5992055206        2.9605838728       -1.6927839626
 C          1.1688625664        2.7947556024       -1.1379206081
 C          0.6020516843        1.6247417130       -0.6140014256
 C         -0.6641714228        1.5922225493       -0.0800605161
 C         -1.4202077021        2.7649030154       -0.0180113933
 N         -2.6857936526        2.7586914620        0.6139161459
 C         -3.8205508169        3.0671312726       -0.1218475675
 C         -3.7293007020        3.2258198776       -1.5085884481
 C         -4.8323689270        3.5692536336       -2.2608437299
 C         -6.0589774567        3.7477071688       -1.6460613268
 C         -6.1651623464        3.5352587103       -0.2837672713
 C         -5.0701537615        3.1862139343        0.4962343767
 C         -5.2717574255        2.8984077837        1.9699812365
 C         -5.9201209065        4.1248409460        2.6365958977
 C         -6.1927020586        1.6716861382        2.1023395036
 C         -3.9612109527        2.6008117231        2.6705224213
 C         -3.9632393896        2.3788115045        4.0411499008
 C         -2.7990305925        2.1620096594        4.7523574553
 C         -1.5897911811        2.1735362500        4.0816747404
 C         -1.5616860275        2.3706379216        2.7179673308
 C         -2.7402007625        2.5657473397        1.9893961480
 C         -0.9161348354        3.9303574577       -0.5664967345
 C          0.3487319363        3.9402363685       -1.1563029209
 O          0.6972702356        5.1283918634       -1.7206829793
 C          1.8588964425        5.2849577681       -2.4043908939
 C          2.0645648854        6.4865747527       -3.0717379714
 C          3.2429099283        6.6728919814       -3.7750265450
 C          4.2221953606        5.6959984557       -3.8172745792
 C          4.0188865071        4.5015507204       -3.1340253402
 C          2.8297914101        4.2733639786       -2.4248401606
 O          4.9998472533        3.5683469156       -3.1845525697
 C          6.6022192724       -1.6132009776        0.2680768068
 C          7.6617068880       -0.9047073222        0.7972785084
 C          8.8540900496       -1.5707756036        1.0502461566
 C          8.9851704370       -2.9229708977        0.7760375168
 C          7.9410161772       -3.6316902234        0.2039264489
 C          6.7545822910       -2.9686037124       -0.0605239779
 C          5.5619734299       -3.4081164619       -0.7670548238
 C          5.2644630593       -4.6143263847       -1.3786897462
 C          4.0946025346       -4.7157311496       -2.1145747577
 C          3.2597652923       -3.6204677964       -2.2694478442
 C          3.5518636466       -2.4103325181       -1.6528925956
 C          4.6827685987       -2.3213099868       -0.8688106799
 C          4.9811582234       -0.5584988066        2.4192224783
 C          4.2297011305       -0.3877165026        3.5584322957
 C          2.8558357653       -0.6353616312        3.5510625454
 O          2.2360874677       -0.4194278292        4.7420414262
 C         -3.6383782151       -4.2403412974       -1.4747917540
 C         -2.9907156059       -5.1649574971       -0.6552553050
 C         -3.1885758653       -6.5194172131       -0.8339214697
 C         -4.0539626369       -6.9674264456       -1.8146233089
 C         -4.6919319486       -6.0520177050       -2.6354348955
 C         -4.4850101596       -4.6898147780       -2.4970106757
 H         -7.0581092938       -4.4563346729       -3.5997967900
 H         -5.9410050336       -5.0546363521       -4.8370673429
 H         -6.5750777681       -3.4325284996       -4.9621092288
 H         -3.6151475044       -4.1712620538       -5.0056337188
 H         -4.2628717743       -2.5273475170       -5.1342123662
 H         -3.0546050829       -2.9075902650       -3.9057805421
 H         -7.1424832714       -1.8643945689       -3.7472848572
 H         -7.4291044774        0.2923364806       -2.6471596639
 H         -5.7608945169        1.0606196416       -0.9962343517
 H         -3.9050725922       -0.3900468884       -0.3611423938
 H         -0.9246527433       -2.7874904605       -1.7953994211
 H          0.8724278031       -2.1475664907       -0.2862309888
 H         -3.7662793145       -2.1227616540        1.3242313042
 H         -2.8854622163       -1.0143491203        5.4797730337
 H         -1.3958574358       -0.3733560867        7.3511951092
 H          1.0305440834       -0.0810788903        6.9667158638
 H          2.5672449445       -1.6468006173        0.3664676658
 H          7.0471660558       -0.1405669442       -1.7924253009
 H          6.9023788967        1.9268466724       -3.1283787227
 H          3.1875112533        0.6674476195       -0.1774227348
 H          1.1721889767        0.7111036212       -0.6450480940
 H         -1.0737655872        0.6734916677        0.3097185466
 H         -2.7838069363        3.0702439688       -2.0017840694
 H         -4.7327443993        3.6922587181       -3.3288730018
 H         -6.9284421698        4.0254082482       -2.2219856862
 H         -7.1350223218        3.6349430473        0.1784311607
 H         -6.0853986719        3.9510748038        3.6953788533
 H         -5.2699621013        4.9907434128        2.5284735335
 H         -6.8777870325        4.3550285640        2.1797631217
 H         -6.3845290055        1.4460990291        3.1474751501
 H         -5.7222232027        0.8054826099        1.6427973492
 H         -7.1438003299        1.8476166534        1.6076667544
 H         -4.9005107672        2.3812899777        4.5757693865
 H         -2.8333869724        1.9985612940        5.8181654836
 H         -0.6653915704        2.0272658398        4.6193402120
 H         -0.6088942036        2.3854165552        2.2142859895
 H         -1.4974934813        4.8393892462       -0.5582327884
 H          1.3052588404        7.2513643784       -3.0392006971
 H          3.4018505463        7.6024575372       -4.3001735402
 H          5.1404864606        5.8474535527       -4.3615251762
 H          7.5843958755        0.1574022270        0.9833508136
 H          9.6911343009       -1.0253662705        1.4607886380
 H          9.9187419490       -3.4224322041        0.9891080565
 H          8.0560427963       -4.6764355227       -0.0431867122
 H          5.9355113545       -5.4560014810       -1.2956946981
 H          3.8432930479       -5.6495056651       -2.5957021995
 H          2.3745099759       -3.7063499067       -2.8829095817
 H          2.9192078374       -1.5497738528       -1.8187726742
 H          6.0368000843       -0.3513219517        2.4595438445
 H          4.6865049676       -0.0525772594        4.4770016680
 H         -2.3362847630       -4.8195828078        0.1294337039
 H         -2.6754108345       -7.2226118257       -0.1948669255
 H         -4.2265377392       -8.0241658890       -1.9507503143
 H         -5.3521792478       -6.4241565754       -3.4011671507
