80
 energy: -135.902968709933 gnorm: 0.000041635217 xtb: 6.7.1 (edcfbbe)
F           -3.16689003243729        6.07676891294868       -0.20787372183323
C           -2.37665423438055        5.24096852664511        0.48593547932801
F           -2.37723012468518        5.68933112683435        1.75397926287871
F           -1.12268983056243        5.45518988685956        0.02529305682000
C           -2.78536366960333        3.80248428332658        0.37115225708364
C           -3.49605347731451        3.36984138549536       -0.74297523906872
C           -3.84183099796479        2.03748930628981       -0.85473843063994
C           -3.47742021076283        1.13657664453756        0.14527391526772
N           -3.80035937166745       -0.22466590926419        0.01993442680566
C           -2.88009365682784       -1.25247895923698       -0.06832832183362
C           -1.43610840852833       -1.08271610743133       -0.05789440891077
C           -0.79400250229780       -0.00872485492861       -0.67294245207164
C            0.58288994247641        0.08595876287643       -0.65240847762400
C            1.36151307329211       -0.89070984652758       -0.03338147381498
C            2.82708494388294       -0.79036288701603       -0.02890528587644
C            3.61692874469308       -1.91990992870644       -0.23982961523396
C            4.99399366862066       -1.82928123283888       -0.25637952469838
C            5.61718102861943       -0.60219641700470       -0.04440535015241
N            7.01660856545505       -0.50872632181637       -0.05772064407542
C            7.76024903637424        0.38068553693420       -0.80775743761698
C            7.33745829593544        1.33691247246065       -1.72077166842437
C            8.30342873642721        2.08682316612287       -2.36439089953144
C            9.66102342457471        1.89104939314951       -2.11749869741120
C           10.08869307754629        0.92606520087725       -1.22724291288401
C            9.13646400906064        0.15870005191082       -0.56820748804794
C            9.21703439281381       -0.91834144334376        0.37887670161978
C           10.27551062872640       -1.56721212936243        1.00226123839296
C            9.99592481000507       -2.57683257941222        1.90179056469322
C            8.68032751125569       -2.93224992376012        2.19390335507610
C            7.61090315637444       -2.30207394005932        1.58670711060943
C            7.88602600149297       -1.30247621515316        0.66378495399143
C            4.83753332043645        0.52981752893303        0.17789019944222
C            3.46025887047782        0.43463627784550        0.17671603916009
C            0.71582628189750       -1.97436145589204        0.56264282937646
C           -0.65920658929876       -2.07062940879337        0.54993119591933
N           -3.45952467145542       -2.41824670780497       -0.19536161433603
C           -4.79834451618006       -2.17863419714578       -0.19845140846900
C           -5.85105883504561       -3.12358833125035       -0.35597357765889
C           -5.58383130720171       -4.48521202746702       -0.53675907390283
C           -6.61210417978604       -5.37506770039220       -0.72450789438358
C           -7.92581724645762       -4.90931822110800       -0.73703428970715
C           -8.20039704363736       -3.57397924663897       -0.55348694794105
C           -7.17750217578585       -2.63425970867180       -0.34955528925648
C           -7.43588140907650       -1.22349849963193       -0.11546773480688
C           -8.74268121017598       -0.72181008446220       -0.02485760584162
C           -9.00020669003685        0.60146325602537        0.24567128786238
C           -7.94867807516034        1.48727800896927        0.45976911447482
C           -6.65379135830095        1.03861442769058        0.37030262510306
C           -6.36839581541346       -0.29933526232896        0.06034031543560
C           -5.04610764611717       -0.81558897798391       -0.05495974233821
C           -2.75932395238378        1.57565203129158        1.25467053530553
C           -2.41186768300451        2.90802673544649        1.36748002184595
H           -3.77674732782556        4.07128587732397       -1.51312710583777
H           -4.39496856784579        1.68786713131667       -1.71323683758792
H           -1.36596317382376        0.74266751822414       -1.19583742297088
H            1.06318444662594        0.91470480264471       -1.15115747097811
H            3.14526876452808       -2.87327353160546       -0.42576539142325
H            5.59564452502845       -2.70497396869341       -0.44958411003267
H            6.28898109736783        1.48545383002402       -1.93095025756888
H            7.99974454091021        2.83946992068323       -3.07764394563486
H           10.38570734139635        2.49934529868907       -2.63889999966667
H           11.14129383726477        0.76434618904985       -1.04793510720839
H           11.29483662834786       -1.28200520191775        0.78787053913141
H           10.80493600265600       -3.09541882852409        2.39530580857353
H            8.49269285150088       -3.71598272572121        2.91356212463420
H            6.59509694451055       -2.57372582407034        1.83131154652623
H            5.31808905227208        1.47893212752364        0.36383761648031
H            2.86735632969652        1.31735424729536        0.36560319350020
H            1.29891179114558       -2.73784752050733        1.05552125319078
H           -1.15801189632681       -2.90927293514191        1.01087839261181
H           -4.55235153265130       -4.80293108015149       -0.53070185093711
H           -6.40928794918596       -6.42638662605363       -0.86648498780687
H           -8.73844653693055       -5.60446306582442       -0.89203640629733
H           -9.23194373117461       -3.26066132873113       -0.57307053472250
H           -9.58116352862559       -1.38546555680243       -0.15932297325397
H          -10.02060046194265        0.95003788281049        0.30715165711232
H           -8.14780136647516        2.52113212641860        0.70031771480725
H           -5.84386510165150        1.72469322895397        0.55862155348035
H           -2.47593845071129        0.87199460042349        2.02171556363129
H           -1.86118103197587        3.25624797120155        2.22739306796994
