80
 energy: -135.902692954420 gnorm: 0.000052217510 xtb: 6.7.1 (edcfbbe)
F           -3.33030562996813        6.35782666985553        0.70516198527726
C           -2.38025612066263        5.46379748078418        1.06413215970463
F           -2.13934494490690        5.69694223623365        2.36700386044432
F           -1.26850355004009        5.83012849916551        0.40584162016637
C           -2.79709198152133        4.04960006639927        0.78882130037335
C           -2.42360115329588        3.43289347121245       -0.39887693299963
C           -2.83708265584325        2.13963863705632       -0.65547109421245
C           -3.62691804700285        1.46453645717807        0.27132700585984
N           -4.00943165914760        0.13716727898852        0.01967188876138
C           -3.12868836977243       -0.91272515170946       -0.16239137582553
C           -1.67959159348216       -0.79062166608472       -0.11471237807332
C           -1.02369758444686        0.01710693315506        0.81308647060111
C            0.35494168598828        0.08612523388791        0.82609035753690
C            1.11760956601343       -0.64152635256022       -0.08541850324576
C            2.58507227072697       -0.55693585833518       -0.07475442458871
C            3.29999017485530       -0.45211022255601       -1.26663116148426
C            4.67840660711984       -0.37347230468151       -1.26089272156692
C            5.37474290258024       -0.40402625835799       -0.05586526794511
N            6.77630502931684       -0.32959745946208       -0.04679762727872
C            7.53724642427441        0.64382977702426       -0.66197359902759
C            7.13018629141849        1.76690325004756       -1.36881529390124
C            8.10895730454315        2.60853335290753       -1.86184237011535
C            9.46278469971848        2.35019384355775       -1.65427058944778
C            9.87316145346312        1.24468912029059       -0.93578597687553
C            8.90787370747318        0.38395407300758       -0.42840269115069
C            8.96638400889974       -0.81402588331689        0.36212253284095
C           10.01086042688567       -1.56875117814063        0.88132382135635
C            9.71073215002788       -2.71280022257445        1.59396359178459
C            8.38933437279492       -3.11344854020595        1.78390185087574
C            7.33325444960585       -2.37900226851795        1.27911083173870
C            7.62810297505263       -1.21773862254739        0.57830161754401
C            4.66959579676064       -0.51058420199916        1.13972046436953
C            3.29092808929070       -0.58407893613719        1.12668413407250
C            0.45832725040744       -1.46289535544294       -0.99952422815004
C           -0.91817849843908       -1.54474414084488       -1.00845548454549
N           -3.75021974757481       -2.04514010742324       -0.36241898052231
C           -5.08033077590823       -1.76100044399336       -0.31268655255977
C           -6.16898603211775       -2.66951948032434       -0.43575155296114
C           -5.95442433592663       -4.03980285261982       -0.62159056804694
C           -7.01812699882663       -4.90352971936515       -0.70494157305228
C           -8.31509041638073       -4.40360393038933       -0.59993585934428
C           -8.53776432954856       -3.05781541393850       -0.42283412950938
C           -7.47720821811490       -2.14142199112618       -0.34215820794938
C           -7.67972152695368       -0.70979947136970       -0.19614927086274
C           -8.96483043744004       -0.14760237882762       -0.18691969780536
C           -9.16805752638772        1.20949989108598       -0.10011538204516
C           -8.08040047887984        2.07505781737607       -0.03611390026853
C           -6.80546130442448        1.56476900138591       -0.03258473594661
C           -6.57627775527519        0.18198513945413       -0.08836872733176
C           -5.27678637782988       -0.40087216167790       -0.08649773285562
C           -3.99818348616772        2.08901468661212        1.46166196761344
C           -3.58815947078880        3.38220121588015        1.71833045464222
H           -1.81215747306949        3.96008918047858       -1.11428061742365
H           -2.55059065503026        1.64866730005199       -1.57235306062684
H           -1.58813276666012        0.57622348143002        1.54408722473656
H            0.84772949381033        0.72513791459004        1.54388255343238
H            2.76847325484008       -0.41856949865407       -2.20608222574039
H            5.22508949364881       -0.30017887470246       -2.18937525421243
H            6.08332645686054        1.98262069314316       -1.52158296603069
H            7.81852866635727        3.48883833566505       -2.41694376621802
H           10.19801492816836        3.03132970072507       -2.05745432154705
H           10.92200537231075        1.05283525947004       -0.76422689961776
H           11.03555836668934       -1.26670052570405        0.72319198767218
H           10.50876023254443       -3.31327618874353        2.00585047231090
H            8.18677302428560       -4.02063781700114        2.33465125578439
H            6.31323116261373       -2.70478265522746        1.41781352787971
H            5.20852578398131       -0.52533543331341        2.07554034646140
H            2.75375241892588       -0.67875171327004        2.05874412557766
H            1.03423820598433       -2.05702127297544       -1.69340045745826
H           -1.42832779134136       -2.19027173778899       -1.70690294044047
H           -4.93473337799398       -4.38726567202176       -0.68812917240650
H           -6.85600733656150       -5.96193928573274       -0.84654201442111
H           -9.15541679211985       -5.08045601276463       -0.65738376086151
H           -9.55810455846935       -2.71831055139969       -0.34368243652340
H           -9.82936282566581       -0.78694487886758       -0.26042905573942
H          -10.17326645718490        1.60458699596615       -0.09641786165094
H           -8.23588747388676        3.14297217158383        0.00508307500145
H           -5.96709885029565        2.24195929231283       -0.00539906028191
H           -4.60714810275790        1.55748534296770        2.17706943833776
H           -3.86984903008995        3.87049789176447        2.63836153992788
