  80
       -135.76929995
 F         -3.7010161561        6.1511422085       -0.1019461500
 C         -2.7719541700        5.3705248369        0.4759100148
 F         -2.6646319037        5.7909709594        1.7487045619
 F         -1.5987731333        5.7034764173       -0.1151026858
 C         -3.0740595809        3.9116549497        0.3629283100
 C         -3.8113154638        3.4347626349       -0.7217875738
 C         -4.0630821344        2.0870066830       -0.8397158394
 C         -3.5730753409        1.1920625134        0.1209069752
 N         -3.8015206694       -0.1752869260       -0.0008362882
 C         -2.7979798771       -1.1704329775        0.0140794462
 C         -1.4095525050       -0.9908059939       -0.0473538386
 C         -0.7385017081        0.2136087390       -0.4047788193
 C          0.6215184633        0.2786255152       -0.4277017040
 C          1.4392979869       -0.8370018769       -0.1162893851
 C          2.8705777143       -0.7442849716       -0.1162899205
 C          3.6870081803       -1.8779008375       -0.3208071175
 C          5.0552815790       -1.7905766198       -0.3107278616
 C          5.6889900265       -0.5617817766       -0.0902154928
 N          7.0790963308       -0.4757768467       -0.0694358390
 C          7.8437508553        0.4688196742       -0.7281934742
 C          7.4478340868        1.4881486033       -1.5833094656
 C          8.4326545652        2.2824774027       -2.1405525871
 C          9.7812405227        2.0666987577       -1.8689129796
 C         10.1837911773        1.0330382547       -1.0438702639
 C          9.2131739555        0.2239060529       -0.4722506151
 C          9.2685051987       -0.9259725139        0.3896130441
 C         10.3104721182       -1.6190103314        0.9877287206
 C         10.0079288997       -2.6919898969        1.8052642703
 C          8.6863710268       -3.0602240645        2.0440417460
 C          7.6317698177       -2.3839360407        1.4595233883
 C          7.9302453618       -1.3265664614        0.6109400505
 C          4.8986943017        0.5761382284        0.1106917216
 C          3.5303496176        0.4860977245        0.0949702959
 C          0.7675435642       -2.0535352388        0.1769483701
 C         -0.5882027616       -2.1308445297        0.2075384150
 N         -3.3526832472       -2.3963443868       -0.0108493612
 C         -4.6621335008       -2.2239907336       -0.1032636826
 C         -5.6603007705       -3.2333515045       -0.2349820756
 C         -5.3039393241       -4.5815831794       -0.3157321781
 C         -6.2704735810       -5.5475845315       -0.4839548016
 C         -7.6026351632       -5.1640551544       -0.5820284306
 C         -7.9644086216       -3.8345503050       -0.4969428543
 C         -7.0112092320       -2.8258296813       -0.3104310387
 C         -7.3608911366       -1.4208498150       -0.1639740577
 C         -8.6921849125       -1.0031662337       -0.1308116073
 C         -9.0469286908        0.3151489190        0.0685331119
 C         -8.0600039671        1.2764183342        0.2759315797
 C         -6.7387944309        0.9158196691        0.2373815499
 C         -6.3468611770       -0.4183358776       -0.0122674870
 C         -5.0050194508       -0.8391506180       -0.0765976680
 C         -2.8229337450        1.6786365440        1.2004834800
 C         -2.5774580329        3.0267816137        1.3204844430
 H         -4.1798649884        4.1250250066       -1.4646573853
 H         -4.6275500548        1.7076502949       -1.6779443442
 H         -1.3074897433        1.0721349253       -0.7213659332
 H          1.0886977223        1.1987831474       -0.7453304389
 H          3.2287326280       -2.8299219775       -0.5379776111
 H          5.6566668716       -2.6648359374       -0.5119034470
 H          6.4074826186        1.6494374610       -1.8206104004
 H          8.1488524813        3.0844747037       -2.8053690395
 H         10.5205559111        2.7102996860       -2.3211870622
 H         11.2302148776        0.8523188391       -0.8507423734
 H         11.3339559680       -1.3198402809        0.8206089136
 H         10.8042710394       -3.2470092632        2.2776448194
 H          8.4793665689       -3.8888116356        2.7045823158
 H          6.6108132651       -2.6623862923        1.6713041286
 H          5.3779647447        1.5211393244        0.3196259792
 H          2.9485575021        1.3716322945        0.2981687232
 H          1.3477981458       -2.9293337116        0.4235815421
 H         -1.0894272052       -3.0539394756        0.4501105749
 H         -4.2565719574       -4.8311983927       -0.2487599418
 H         -5.9992172512       -6.5905404610       -0.5455631078
 H         -8.3677568406       -5.9131376888       -0.7250329955
 H         -9.0109891154       -3.5889557931       -0.5808025817
 H         -9.4836390742       -1.7250785264       -0.2513925150
 H        -10.0888286167        0.5965902977        0.0844789984
 H         -8.3341931321        2.3023347181        0.4711155705
 H         -5.9842925229        1.6603669822        0.4273198180
 H         -2.4442481507        0.9853692507        1.9351574655
 H         -2.0125730105        3.4059711829        2.1577341231
