80
 energy: -135.820215420409 gnorm: 0.000064049472 xtb: 6.7.1 (edcfbbe)
F           -3.67437220947092        6.15429385705862       -0.19412344525226
C           -2.78709969023462        5.37248838778677        0.44809719762904
F           -2.75136515296857        5.81813841091272        1.71979192800209
F           -1.57669784374239        5.70388919537519       -0.07470701718380
C           -3.08480932570778        3.91559024378294        0.33989511163054
C           -3.81456508808712        3.42734050430589       -0.74662243546738
C           -4.06164736983191        2.07803994430469       -0.85375772093424
C           -3.57207333595715        1.19068648043585        0.11576220028589
N           -3.79859052130073       -0.17902377534811        0.00163550616922
C           -2.79804379246790       -1.17744532455269        0.01419369395904
C           -1.40707647527226       -1.00269134905641       -0.03800512447342
C           -0.73079131776971        0.20013400149190       -0.38939924493672
C            0.63011378536795        0.26426935437854       -0.40284714073539
C            1.44450741361970       -0.85257292056991       -0.08834920529277
C            2.87746964253485       -0.76041014973244       -0.08296217731023
C            3.69440131571467       -1.89214734251661       -0.29506660233992
C            5.06321325953745       -1.80268166716220       -0.28954144933157
C            5.69555840241202       -0.57286895504033       -0.06900720058152
N            7.08590307689655       -0.48137627511295       -0.06128406238585
C            7.83927827120730        0.46365909383318       -0.73275148542679
C            7.42893602847100        1.47346433406919       -1.59313056160580
C            8.40370655480627        2.27000566945302       -2.16571520315742
C            9.75618098869364        2.06488920862096       -1.90388831143373
C           10.17293513431639        1.04045388340835       -1.07305733989767
C            9.21270134162384        0.22934584389329       -0.48642654202838
C            9.28213424039827       -0.91451178508664        0.38407614581455
C           10.33262048432518       -1.59705459239547        0.97973459298956
C           10.04244894283713       -2.66678656983078        1.80733556504936
C            8.72482197850601       -3.04216695429642        2.05789214282866
C            7.66174090626298       -2.37645166142786        1.47560332215829
C            7.94779574921213       -1.32242147819235        0.61798347002780
C            4.90413829910351        0.56242062686888        0.14419839454969
C            3.53550193814812        0.46945359662166        0.13670368463383
C            0.76909849177934       -2.06808716088140        0.19897353111659
C           -0.58785647878980       -2.14329598506582        0.22116469848915
N           -3.35639214379353       -2.40217583762372       -0.02123988166763
C           -4.66711580442069       -2.22498120477757       -0.11455089342220
C           -5.66853062823128       -3.23066542740884       -0.25834014184494
C           -5.31839391810565       -4.57982563093396       -0.35880296754719
C           -6.28853138874253       -5.54006694829460       -0.54077038615633
C           -7.61978827021802       -5.15034403225426       -0.63292946516612
C           -7.97603285683054       -3.82057974553609       -0.52952532332879
C           -7.01879572406173       -2.81807864890354       -0.32663739472799
C           -7.36423128686019       -1.41428575042992       -0.15733900996931
C           -8.69480261820601       -0.99445258679196       -0.10272398714063
C           -9.04458881505555        0.32180606982600        0.11893148667583
C           -8.05300848775788        1.27867629868393        0.32636139935190
C           -6.73287142955724        0.91521901414732        0.26861575689245
C           -6.34616032196836       -0.41646078444394       -0.00181499540337
C           -5.00524367247808       -0.84094477403494       -0.07730986667866
C           -2.82887829455967        1.68884105299187        1.19628711364987
C           -2.58993079852905        3.03861048821204        1.30809425310059
H           -4.18054526914071        4.10985371927287       -1.49796335879532
H           -4.62261918304225        1.69181766423510       -1.69114024197751
H           -1.29715244926067        1.06080359804034       -0.70571135627165
H            1.09866025835281        1.18572264534542       -0.71469714353949
H            3.23670887313487       -2.84365874552455       -0.51513660972443
H            5.66451981516877       -2.67565324465667       -0.49585533158964
H            6.38560177387221        1.62689581305495       -1.82161437551641
H            8.10918026687280        3.06517940805191       -2.83461617405222
H           10.48799857255680        2.70958070909007       -2.36766457342358
H           11.22263854304394        0.86974761412117       -0.88807774804183
H           11.35363941918662       -1.29393527465397        0.80398789476878
H           10.84626509001516       -3.21316678175390        2.27807561008753
H            8.52806500054339       -3.86770719925015        2.72578034202099
H            6.64427718988870       -2.66084406232326        1.69498895952088
H            5.38225950036086        1.50742949232889        0.35568909138908
H            2.95310977651944        1.35187685520296        0.35136121761288
H            1.34494210314051       -2.94568436092498        0.44942836712880
H           -1.09038409297551       -3.06676363205438        0.46157469603528
H           -4.27193030627760       -4.83596380433100       -0.29724276719584
H           -6.01990576602888       -6.58296370143699       -0.61760342620174
H           -8.38759671199982       -5.89456049846144       -0.78752778150381
H           -9.02106564077671       -3.56881750030995       -0.61179454056577
H           -9.48872199799798       -1.71358843605708       -0.22236210759474
H          -10.08594554393023        0.60480954781894        0.15146230999030
H           -8.32200160184734        2.30296192973599        0.53818038484261
H           -5.97392644636250        1.65537987195850        0.45850507588992
H           -2.45088952908418        1.00347382991633        1.93888556549879
H           -2.03138455000942        3.42659287442764        2.14584439938839
