  72
       -125.11170915
 N          0.7669639892       -8.4322964239       -0.0469756168
 C          0.9738787870       -7.3034707362       -0.0344927753
 C          1.2429066268       -5.9175279341       -0.0150872628
 N          0.2454369817       -5.0565042073       -0.0358194636
 C          0.5081129211       -3.7302211321       -0.0248903728
 C         -0.5512355302       -2.7927911072       -0.0355854776
 C         -1.8855539896       -3.2526059706       -0.0524296865
 C         -2.9339596966       -2.3781566846       -0.0555820103
 C         -2.6736191117       -0.9975612121       -0.0323487193
 N         -3.7614781446       -0.0688443195       -0.0271017692
 C         -4.3810577678        0.1832875230        1.1854789853
 C         -3.9337085136       -0.4720817203        2.3398536890
 C         -4.5303204174       -0.2630094092        3.5660897720
 C         -5.5968034253        0.6142128419        3.6890448894
 C         -6.0447142208        1.2852651661        2.5688481630
 C         -5.4470728395        1.0804244541        1.3322433778
 S         -6.0959611986        2.0297351145       -0.0034724404
 C         -5.1383012734        1.4539272427       -1.3666674502
 C         -5.4526157033        2.0013193177       -2.6036352563
 C         -4.7723568997        1.6143274906       -3.7408639970
 C         -3.7734100884        0.6589186094       -3.6343027048
 C         -3.4569374673        0.1108357865       -2.4083595437
 C         -4.1218881169        0.4982578705       -1.2375901562
 C         -1.3807150112       -0.5231417973       -0.0200665934
 C         -0.2856113245       -1.3936524941       -0.0297844068
 C          1.0806813672       -0.9372215532       -0.0436786241
 C          1.4177964817        0.4173055253       -0.1061368215
 C          2.7346023391        0.8556053691       -0.1574130769
 N          3.0248550398        2.2061948833       -0.2488118307
 C          2.0241753965        3.1951069960       -0.3168349496
 C          1.0342424806        3.1631934283       -1.2961047148
 C          0.0481503201        4.1315449515       -1.3245751828
 C          0.0520189770        5.1609535939       -0.3952759555
 C          1.0637012578        5.2393067719        0.5432968299
 C          2.0494888591        4.2644866146        0.5777377111
 S          3.3671178153        4.3779152465        1.7568908065
 C          4.6444662259        3.7283801954        0.7128809246
 C          5.9297245952        4.2412127402        0.7944637487
 C          6.9153432496        3.7593586779       -0.0464702869
 C          6.6063498631        2.7947893590       -0.9931782542
 C          5.3238885033        2.2855428944       -1.0782849014
 C          4.3367864652        2.7170915233       -0.1965695906
 C          3.7635374600       -0.1006016738       -0.0344541192
 C          3.4582747379       -1.4314858792        0.0294580439
 C          2.1312779995       -1.8849072143       -0.0094497022
 C          1.8601023654       -3.2881822098        0.0025388513
 N          2.8552879150       -4.1615617822        0.0259883579
 C          2.5894315915       -5.4812732281        0.0192312983
 C          3.6300758140       -6.4145917855        0.0390010802
 N          4.4804503423       -7.1924756903        0.0544211168
 H         -2.0475366890       -4.3190841556       -0.0649818156
 H         -3.9556603901       -2.7262078163       -0.0715400114
 H         -3.1028325283       -1.1549489767        2.2659518432
 H         -4.1568824979       -0.7904873919        4.4299546666
 H         -6.0692137608        0.7778726024        4.6441285238
 H         -6.8659180026        1.9828826928        2.6327013493
 H         -6.2424353304        2.7353737659       -2.6536647095
 H         -5.0232063735        2.0464750350       -4.6961653536
 H         -3.2361486421        0.3327895814       -4.5113238005
 H         -2.6828189089       -0.6370301225       -2.3473796688
 H         -1.2363725049        0.5461578421       -0.0022468064
 H          0.6309635737        1.1510185975       -0.1021189697
 H          1.0463295685        2.3709767754       -2.0299863353
 H         -0.7221711622        4.0842332364       -2.0793959613
 H         -0.7213949214        5.9127631480       -0.4143522943
 H          1.0992041651        6.0476439011        1.2569636065
 H          6.1435776533        5.0116479064        1.5188736854
 H          7.9181624286        4.1504185714        0.0237120323
 H          7.3652148163        2.4402290088       -1.6734381729
 H          5.0749769525        1.5498887765       -1.8283376795
 H          4.7927556362        0.2114715372        0.0320601960
 H          4.2409883008       -2.1697376862        0.1109057256
