  72
  -125.111709150000       0.216627971026896      !
 N          0.7669639892       -8.4322964239       -0.0469756168
 C          0.9738787870       -7.3034707362       -0.0344927753
 C          1.2429066268       -5.9175279341       -0.0150872628
 N          0.2454369817       -5.0565042073       -0.0358194636
 C          0.5081129211       -3.7302211321       -0.0248903728
 C         -0.5512355302       -2.7927911072       -0.0355854776
 C         -1.8855539896       -3.2526059706       -0.0524296865
 C         -2.9339596966       -2.3781566846       -0.0555820103
 C         -2.6736191117       -0.9975612121       -0.0323487193
 N         -3.7614781446       -0.0688443195       -0.0271017692
 C         -4.3810577678        0.1832875230        1.1854789853
 C         -3.9337085136       -0.4720817203        2.3398536890
 C         -4.5303204174       -0.2630094092        3.5660897720
 C         -5.5968034253        0.6142128419        3.6890448894
 C         -6.0447142208        1.2852651661        2.5688481630
 C         -5.4470728395        1.0804244541        1.3322433778
 S         -6.0959611986        2.0297351145       -0.0034724404
 C         -5.1383012734        1.4539272427       -1.3666674502
 C         -5.4526157033        2.0013193177       -2.6036352563
 C         -4.7723568997        1.6143274906       -3.7408639970
 C         -3.7734100884        0.6589186094       -3.6343027048
 C         -3.4569374673        0.1108357865       -2.4083595437
 C         -4.1218881169        0.4982578705       -1.2375901562
 C         -1.3807150112       -0.5231417973       -0.0200665934
 C         -0.2856113245       -1.3936524941       -0.0297844068
 C          1.0806813672       -0.9372215532       -0.0436786241
 C          1.4177964817        0.4173055253       -0.1061368215
 C          2.7346023391        0.8556053691       -0.1574130769
 N          3.0248550398        2.2061948833       -0.2488118307
 C          2.0241753965        3.1951069960       -0.3168349496
 C          1.0342424806        3.1631934283       -1.2961047148
 C          0.0481503201        4.1315449515       -1.3245751828
 C          0.0520189770        5.1609535939       -0.3952759555
 C          1.0637012578        5.2393067719        0.5432968299
 C          2.0494888591        4.2644866146        0.5777377111
 S          3.3671178153        4.3779152465        1.7568908065
 C          4.6444662259        3.7283801954        0.7128809246
 C          5.9297245952        4.2412127402        0.7944637487
 C          6.9153432496        3.7593586779       -0.0464702869
 C          6.6063498631        2.7947893590       -0.9931782542
 C          5.3238885033        2.2855428944       -1.0782849014
 C          4.3367864652        2.7170915233       -0.1965695906
 C          3.7635374600       -0.1006016738       -0.0344541192
 C          3.4582747379       -1.4314858792        0.0294580439
 C          2.1312779995       -1.8849072143       -0.0094497022
 C          1.8601023654       -3.2881822098        0.0025388513
 N          2.8552879150       -4.1615617822        0.0259883579
 C          2.5894315915       -5.4812732281        0.0192312983
 C          3.6300758140       -6.4145917855        0.0390010802
 N          4.4804503423       -7.1924756903        0.0544211168
 H         -2.0475366890       -4.3190841556       -0.0649818156
 H         -3.9556603901       -2.7262078163       -0.0715400114
 H         -3.1028325283       -1.1549489767        2.2659518432
 H         -4.1568824979       -0.7904873919        4.4299546666
 H         -6.0692137608        0.7778726024        4.6441285238
 H         -6.8659180026        1.9828826928        2.6327013493
 H         -6.2424353304        2.7353737659       -2.6536647095
 H         -5.0232063735        2.0464750350       -4.6961653536
 H         -3.2361486421        0.3327895814       -4.5113238005
 H         -2.6828189089       -0.6370301225       -2.3473796688
 H         -1.2363725049        0.5461578421       -0.0022468064
 H          0.6309635737        1.1510185975       -0.1021189697
 H          1.0463295685        2.3709767754       -2.0299863353
 H         -0.7221711622        4.0842332364       -2.0793959613
 H         -0.7213949214        5.9127631480       -0.4143522943
 H          1.0992041651        6.0476439011        1.2569636065
 H          6.1435776533        5.0116479064        1.5188736854
 H          7.9181624286        4.1504185714        0.0237120323
 H          7.3652148163        2.4402290088       -1.6734381729
 H          5.0749769525        1.5498887765       -1.8283376795
 H          4.7927556362        0.2114715372        0.0320601960
 H          4.2409883008       -2.1697376862        0.1109057256
  72
  -125.111698090000       0.214107414941875      !
 N          0.7634797987       -8.4442336679        0.0342652207
 C          0.9736848027       -7.3160811174        0.0473913384
 C          1.2450783013       -5.9306791033        0.0718006779
 N          0.2511413823       -5.0681088712        0.0080033357
 C          0.5142059180       -3.7421147824        0.0323860551
 C         -0.5440105818       -2.8042165379       -0.0000688183
 C         -1.8803722188       -3.2533002095       -0.0707439383
 C         -2.9228799557       -2.3713799788       -0.0822814288
 C         -2.6600717213       -0.9936504161        0.0117577081
 N         -3.7450258884       -0.0668313481        0.0372876442
 C         -4.5204289005       -0.0332481904        1.1877220281
 C         -4.1417304609       -0.7961572030        2.3000193265
 C         -4.9008764716       -0.8224973870        3.4517137524
 C         -6.0651104892       -0.0756433354        3.5440822805
 C         -6.4391229790        0.7142740118        2.4757427047
 C         -5.6788411644        0.7437718890        1.3139717044
 S         -6.2529581637        1.8210786246        0.0439420280
 C         -4.9542859011        1.7093856322       -1.1417698179
 C         -5.0505193367        2.5756705905       -2.2230119378
 C         -4.1320055826        2.5275388145       -3.2521463277
 C         -3.1250480024        1.5762754695       -3.2054977904
 C         -3.0201849642        0.7179323964       -2.1304211269
 C         -3.9106863048        0.7778319483       -1.0499328338
 C         -1.3632576912       -0.5317794625        0.0825648190
 C         -0.2745340066       -1.4070950788        0.0432755305
 C          1.0919246872       -0.9535062486        0.0238373224
 C          1.4252232846        0.3971720801       -0.0916588388
 C          2.7403778834        0.8347032048       -0.1774138603
 N          3.0188004763        2.1792447750       -0.3532251528
 C          2.0043331228        3.1451800443       -0.5018914358
 C          1.0160887868        3.0191883996       -1.4758747835
 C          0.0098264723        3.9613014863       -1.5773907283
 C         -0.0060810643        5.0598855401       -0.7309944674
 C          1.0043467250        5.2312939298        0.1965195172
 C          2.0083789179        4.2807996090        0.3069998673
 S          3.3183287310        4.5066902330        1.4782316108
 C          4.6114078668        3.7920360921        0.4979258993
 C          5.8896193675        4.3259652752        0.5490614505
 C          6.8882326100        3.7932039851       -0.2445505770
 C          6.5986220131        2.7551375228       -1.1166154059
 C          5.3231636151        2.2244097876       -1.1715744946
 C          4.3237852133        2.7088881571       -0.3321807278
 C          3.7709060279       -0.1128752878       -0.0089018504
 C          3.4682200353       -1.4415387828        0.1076084600
 C          2.1422897772       -1.8996708704        0.0781786634
 C          1.8665997105       -3.3019703340        0.1040035166
 N          2.8580118722       -4.1772927439        0.1665494940
 C          2.5902807856       -5.4965127029        0.1597954954
 C          3.6276943329       -6.4306216330        0.2312972129
 N          4.4743847980       -7.2108025187        0.2827478894
 H         -2.0494615195       -4.3174673041       -0.1221391463
 H         -3.9445234316       -2.7137119080       -0.1485903654
 H         -3.2331134803       -1.3743101776        2.2556541726
 H         -4.5758671186       -1.4296429231        4.2821778815
 H         -6.6661710466       -0.0984874496        4.4386762976
 H         -7.3288224614        1.3237385452        2.5220046964
 H         -5.8676946043        3.2805623425       -2.2430024028
 H         -4.2130593756        3.2072114582       -4.0851406141
 H         -2.4143299313        1.4951965610       -4.0136754232
 H         -2.2378730939       -0.0230599671       -2.1273258493
 H         -1.2101110832        0.5329795300        0.1695575864
 H          0.6364320536        1.1281312396       -0.1172443953
 H          1.0430520957        2.1720875860       -2.1450554257
 H         -0.7628876955        3.8371713259       -2.3211143578
 H         -0.7948942741        5.7918303935       -0.8065741840
 H          1.0240580904        6.0935211603        0.8447267573
 H          6.0877360703        5.1532569783        1.2126856422
 H          7.8855624024        4.2014421922       -0.1975007851
 H          7.3668069224        2.3601334746       -1.7633544410
 H          5.0891225725        1.4329579955       -1.8675642883
 H          4.7995452725        0.2037641162        0.0445511218
 H          4.2530540973       -2.1741833389        0.2151641433
  72
  -125.111687860000       0.211802131073850      !
 N          0.7779886115       -8.4494179426        0.0357656704
 C          0.9840260383       -7.3203869660        0.0447495779
 C          1.2501862321       -5.9337976362        0.0562049825
 N          0.2520642035       -5.0750956659        0.0081970801
 C          0.5111547047       -3.7480275992        0.0194819708
 C         -0.5503435258       -2.8135843449       -0.0042512461
 C         -1.8849732689       -3.2708612517       -0.0515353976
 C         -2.9327305920       -2.3951964471       -0.0589297285
 C         -2.6746036618       -1.0151525038        0.0092671078
 N         -3.7558105093       -0.0820395835        0.0269396636
 C         -4.5014908227        0.0166968621        1.1918240509
 C         -4.1824116514       -0.7903347624        2.2916428376
 C         -4.9193330054       -0.7496900766        3.4573475611
 C         -6.0016472353        0.1083007397        3.5763098490
 C         -6.3140878886        0.9397927156        2.5198156678
 C         -5.5743420159        0.9047986511        1.3450114428
 S         -6.0484746077        2.0660118652        0.1073911652
 C         -4.9228042717        1.6957518936       -1.1962920369
 C         -5.0586896481        2.4612766915       -2.3472520856
 C         -4.2578204612        2.2320306226       -3.4478104557
 C         -3.3280362982        1.2049980103       -3.3978097444
 C         -3.1859500289        0.4438804425       -2.2559603201
 C         -3.9597748038        0.6813278429       -1.1119346238
 C         -1.3799546540       -0.5446373740        0.0499767268
 C         -0.2862693624       -1.4146411105        0.0196486884
 C          1.0788093093       -0.9560500429       -0.0057571055
 C          1.4092317289        0.3969652088       -0.1061376237
 C          2.7232858796        0.8386141006       -0.1880801227
 N          3.0020727355        2.1865086620       -0.3358141647
 C          1.9894492950        3.1604741852       -0.4376892455
 C          0.9887949761        3.0720446625       -1.4028260450
 C         -0.0145126442        4.0213064000       -1.4587903644
 C         -0.0157975642        5.0892468867       -0.5739387109
 C          1.0069392318        5.2244882696        0.3460932699
 C          2.0088298505        4.2675392410        0.4097902626
 S          3.3365003437        4.4500179193        1.5686682175
 C          4.6126060744        3.7656985740        0.5454098454
 C          5.8933053607        4.2938571457        0.5949357010
 C          6.8782726278        3.7839833955       -0.2301427341
 C          6.5727416930        2.7747595599       -1.1302401238
 C          5.2948231667        2.2498933101       -1.1834633527
 C          4.3091880196        2.7112874122       -0.3153290156
 C          3.7569778799       -0.1092785711       -0.0426727131
 C          3.4576247068       -1.4395150279        0.0603242665
 C          2.1323180899       -1.8995705083        0.0378406250
 C          1.8625145476       -3.3029228981        0.0659434767
 N          2.8583065067       -4.1743294523        0.1129048023
 C          2.5953701814       -5.4945171744        0.1148036507
 C          3.6371380393       -6.4251705488        0.1661333077
 N          4.4882371713       -7.2012298180        0.2092035718
 H         -2.0483392068       -4.3365777426       -0.0882409903
 H         -3.9534052046       -2.7435340198       -0.1074871310
 H         -3.3383095871       -1.4573858513        2.2270180535
 H         -4.6411492111       -1.3926370576        4.2778949501
 H         -6.5846319247        0.1396855889        4.4825043169
 H         -7.1350811055        1.6372222474        2.5879439129
 H         -5.8102141386        3.2359792706       -2.3610200517
 H         -4.3691269572        2.8340761515       -4.3352556816
 H         -2.7096749723        0.9878596495       -4.2550801447
 H         -2.4663659352       -0.3586261482       -2.2450752472
 H         -1.2336255481        0.5232588632        0.1031713705
 H          0.6190661059        1.1267478995       -0.1171107068
 H          1.0044388503        2.2495439146       -2.1024494620
 H         -0.7950777498        3.9274471544       -2.1987786931
 H         -0.8024664280        5.8263517078       -0.6136962455
 H          1.0379850294        6.0631082605        1.0241460211
 H          6.1042406079        5.0982325911        1.2823677292
 H          7.8775867942        4.1874733991       -0.1846033010
 H          7.3305699728        2.3973986623       -1.7993108856
 H          5.0483381454        1.4794828717       -1.8985742225
 H          4.7853814091        0.2088220009        0.0067760151
 H          4.2443187937       -2.1719669679        0.1548113556
  72
  -125.111514130000       0.176233937895683      !
 N          0.7727942374       -8.4132467124       -0.1006323419
 C          0.9811135218       -7.2846661549       -0.0992449232
 C          1.2487767645       -5.8983047523       -0.1121154964
 N          0.2502887225       -5.0386026044       -0.0921091758
 C          0.5111793655       -3.7118781138       -0.1021788182
 C         -0.5493045105       -2.7758745378       -0.0968915714
 C         -1.8826447740       -3.2382842868       -0.0778130895
 C         -2.9326509316       -2.3660017270       -0.0885734438
 C         -2.6748760095       -0.9853234790       -0.1295992655
 N         -3.7669494382       -0.0617650370       -0.1591152059
 C         -4.1451733042        0.5204697422        1.0387887380
 C         -3.4804929258        0.1664811146        2.2198416113
 C         -3.8130747085        0.7321972179        3.4331184241
 C         -4.8285755335        1.6722784770        3.5160255394
 C         -5.5092561864        2.0257949287        2.3684360886
 C         -5.1789884718        1.4602136044        1.1441272011
 S         -6.1415918439        1.9905655483       -0.2335920398
 C         -5.4571343734        1.0409080346       -1.5512459744
 C         -6.0434170658        1.2206689703       -2.7970622610
 C         -5.5705142754        0.5449527226       -3.9040862953
 C         -4.4901627725       -0.3114018099       -3.7584839495
 C         -3.9042391899       -0.4952104710       -2.5230873553
 C         -4.3768080570        0.1651080663       -1.3814963104
 C         -1.3829438987       -0.5082142075       -0.1432297179
 C         -0.2859368358       -1.3763280187       -0.1160047486
 C          1.0797167342       -0.9175520653       -0.1164138527
 C          1.4148859390        0.4392196138       -0.1057323196
 C          2.7309358887        0.8814828586       -0.1340478128
 N          3.0234332786        2.2348765113       -0.1212774452
 C          2.0263356419        3.2274024361       -0.0494942195
 C          1.0117764593        3.3089599275       -0.9996774184
 C          0.0281680266        4.2742716123       -0.8900459033
 C          0.0581547176        5.1883125867        0.1522625753
 C          1.0943069925        5.1581504684        1.0662587113
 C          2.0785007362        4.1868965832        0.9609845753
 S          3.4277387515        4.1674307641        2.1089787552
 C          4.6747828168        3.6352187681        0.9668361918
 C          5.9656439761        4.1290822597        1.0747139156
 C          6.9284394127        3.7372800268        0.1634939186
 C          6.5919201201        2.8819185839       -0.8744168649
 C          5.3041167803        2.3912300025       -0.9848855456
 C          4.3394822539        2.7320810879       -0.0409733228
 C          3.7623318117       -0.0789217412       -0.0933944118
 C          3.4589480449       -1.4116137320       -0.0918976106
 C          2.1316688475       -1.8643346915       -0.1225837604
 C          1.8625603029       -3.2681978043       -0.1241157717
 N          2.8588281411       -4.1402995427       -0.1419558623
 C          2.5948489992       -5.4605357426       -0.1404054623
 C          3.6368410351       -6.3921731280       -0.1630820173
 N          4.4879155590       -7.1693001660       -0.1765484200
 H         -2.0424115229       -4.3049350288       -0.0545515666
 H         -3.9537763488       -2.7158040122       -0.0727254354
 H         -2.6930018480       -0.5686300600        2.1774643882
 H         -3.2751311718        0.4319490164        4.3187673905
 H         -5.0910271610        2.1187867785        4.4612744472
 H         -6.3107076182        2.7479840836        2.4000889120
 H         -6.8765977814        1.9021149571       -2.8783749672
 H         -6.0349507483        0.6884047523       -4.8661565870
 H         -4.0986863878       -0.8437519533       -4.6112063046
 H         -3.0626174116       -1.1626207997       -2.4315567432
 H         -1.2407202885        0.5611076935       -0.1736388767
 H          0.6271412947        1.1694727323       -0.0456346999
 H          1.0034065645        2.6071980022       -1.8206202099
 H         -0.7618871134        4.3149461680       -1.6244854461
 H         -0.7154068154        5.9347880905        0.2427713167
 H          1.1492196079        5.8769181234        1.8686821518
 H          6.2013838545        4.8153316397        1.8733137371
 H          7.9348552207        4.1159762380        0.2511379033
 H          7.3331429766        2.5997266747       -1.6060329396
 H          5.0335879912        1.7382516965       -1.8011930244
 H          4.7926418801        0.2306054826       -0.0314883067
 H          4.2431803139       -2.1519303846       -0.0573733989
  72
  -125.111281210000       0.137735828254071      !
 N          0.7734575601       -8.3971254050       -0.1337183070
 C          0.9818700170       -7.2684662861       -0.1386020911
 C          1.2496839929       -5.8819043921       -0.1492052045
 N          0.2517417299       -5.0229498009       -0.1085041676
 C          0.5120198707       -3.6957297850       -0.1227133615
 C         -0.5479236074       -2.7600540575       -0.1078470694
 C         -1.8810613934       -3.2222827487       -0.0714530176
 C         -2.9307726075       -2.3502758078       -0.0865094187
 C         -2.6752445680       -0.9699640352       -0.1588438297
 N         -3.7710115854       -0.0535505616       -0.2086241962
 C         -4.0799523486        0.6443072205        0.9479507126
 C         -3.3359197885        0.4203575566        2.1136889168
 C         -3.5894191964        1.1146196508        3.2785208890
 C         -4.6040289907        2.0580212233        3.3288716477
 C         -5.3704836799        2.2758649024        2.2019243070
 C         -5.1215291494        1.5783448285        1.0269436959
 S         -6.2076776303        1.9267512881       -0.3161112872
 C         -5.5960802596        0.8541759416       -1.5735299232
 C         -6.2853314232        0.8795699491       -2.7788680398
 C         -5.8682171278        0.1114931478       -3.8473967605
 C         -4.7337004092       -0.6728167749       -3.7080322508
 C         -4.0475108086       -0.7054256576       -2.5114863703
 C         -4.4703233232        0.0378111543       -1.4015959839
 C         -1.3825497163       -0.4932316401       -0.1840034875
 C         -0.2854717056       -1.3602666144       -0.1383298077
 C          1.0804457256       -0.9011739430       -0.1322134763
 C          1.4160945556        0.4552073237       -0.0899266727
 C          2.7327559760        0.8968075202       -0.1098705659
 N          3.0310350638        2.2478928863       -0.0556074711
 C          2.0430826370        3.2444231275        0.0682485613
 C          1.0109596672        3.3666311128       -0.8583667416
 C          0.0391964524        4.3369233786       -0.6977042329
 C          0.0986925796        5.2162365761        0.3726894069
 C          1.1524493569        5.1466392309        1.2643801256
 C          2.1244620642        4.1700925433        1.1082100157
 S          3.4969443919        4.1027611069        2.2268250068
 C          4.7156179239        3.6021635218        1.0406111267
 C          6.0115825829        4.0853035145        1.1347873557
 C          6.9509516196        3.7179023593        0.1895900909
 C          6.5859685825        2.8976697149       -0.8670058234
 C          5.2930284462        2.4179726520       -0.9637244625
 C          4.3518494374        2.7345072474        0.0118399057
 C          3.7636595427       -0.0651163217       -0.1007208627
 C          3.4596967519       -1.3972586444       -0.1257702577
 C          2.1319152802       -1.8481434222       -0.1556778355
 C          1.8629842030       -3.2521401764       -0.1656708544
 N          2.8587576523       -4.1235283611       -0.2033739811
 C          2.5952890266       -5.4441333870       -0.2016614816
 C          3.6371772968       -6.3748704221       -0.2437035325
 N          4.4887317015       -7.1508673791       -0.2798681117
 H         -2.0405476252       -4.2883790846       -0.0302086905
 H         -3.9515062922       -2.7003451923       -0.0546533615
 H         -2.5493651219       -0.3166300958        2.1001251299
 H         -2.9901677615        0.9120747812        4.1525468293
 H         -4.8030990304        2.6071478158        4.2350444686
 H         -6.1809904350        2.9888050941        2.2125203263
 H         -7.1528534662        1.5166920563       -2.8600605644
 H         -6.4139546195        0.1330687640       -4.7768312271
 H         -4.3765419612       -1.2657423903       -4.5355788595
 H         -3.1641790607       -1.3174407286       -2.4276467310
 H         -1.2391136003        0.5750036844       -0.2400551427
 H          0.6284683638        1.1833275090       -0.0052887405
 H          0.9811406271        2.6946512516       -1.7033184132
 H         -0.7632236604        4.4107352471       -1.4159326437
 H         -0.6637666257        5.9684571260        0.5009105533
 H          1.2321594125        5.8401175092        2.0869454247
 H          6.2701306562        4.7419902518        1.9508858888
 H          7.9620089366        4.0855770218        0.2677684600
 H          7.3092904048        2.6331940747       -1.6227785412
 H          5.0002051690        1.7917832213       -1.7932157306
 H          4.7945841444        0.2423954683       -0.0379990329
 H          4.2435669925       -2.1385668881       -0.1100232638
  72
  -125.109748640000       2.720987324385595E-002 !
 N          0.8760325939       -8.3982967367       -0.7669274286
 C          1.0694669920       -7.2704711960       -0.6507925601
 C          1.3169049926       -5.8950427349       -0.5121724055
 N          0.3063487356       -5.0316211228       -0.4649603718
 C          0.5537531796       -3.7200560611       -0.3306231703
 C         -0.5140907979       -2.7883446368       -0.2770763067
 C         -1.8418847075       -3.2392969048       -0.4018263625
 C         -2.8983974949       -2.3795122002       -0.3401705696
 C         -2.6788553253       -0.9983412611       -0.1396045644
 N         -3.7461659494       -0.1161099760       -0.0828725988
 C         -3.5860851225        1.2778657827        0.0209071245
 C         -2.8413068510        1.8554450745        1.0473296103
 C         -2.6981017799        3.2277969535        1.1208201737
 C         -3.3143008260        4.0462262483        0.1857809666
 C         -4.0978951486        3.4911195431       -0.8076598658
 C         -4.2407937013        2.1138891108       -0.8845279169
 S         -5.2821460116        1.4027837337       -2.1281974146
 C         -5.9196876704        0.0813231210       -1.1347700336
 C         -7.2387281953       -0.3198715401       -1.2799346794
 C         -7.7419593209       -1.3259300302       -0.4767111086
 C         -6.9378543258       -1.9041464292        0.4940648466
 C         -5.6229741294       -1.5043859436        0.6406799557
 C         -5.0859961589       -0.5328523978       -0.2004805177
 C         -1.3701245646       -0.5369686606       -0.0900967091
 C         -0.2699244159       -1.3968415622       -0.1354633835
 C          1.0900458778       -0.9280482901       -0.0505225932
 C          1.4167761280        0.4235316793        0.0842146620
 C          2.7302278723        0.8710317572        0.1394190004
 N          3.0144161355        2.2219830884        0.2631997802
 C          2.0176990402        3.2129410219        0.3237361166
 C          1.0443706644        3.3334417955       -0.6662965480
 C          0.0772674834        4.3163908364       -0.5802122913
 C          0.0798255648        5.2087528149        0.4817627595
 C          1.0672688082        5.1326959597        1.4452718097
 C          2.0367512232        4.1447132812        1.3623660126
 S          3.3283118005        4.0715289478        2.5719983955
 C          4.6209296517        3.5802799458        1.4642468158
 C          5.9059366690        4.0691910454        1.6407700424
 C          6.9025991672        3.7151255390        0.7509861661
 C          6.6053597891        2.9052334472       -0.3347875289
 C          5.3242661055        2.4182144279       -0.5128172767
 C          4.3245247657        2.7168326147        0.4097553552
 C          3.7672555291       -0.0882491804        0.1588748951
 C          3.4756546423       -1.4148971485        0.0388682699
 C          2.1506549430       -1.8710086187       -0.0962782941
 C          1.8946383093       -3.2584124058       -0.2392172257
 N          2.9081359268       -4.1359969466       -0.2893164928
 C          2.6541340044       -5.4344094645       -0.4231031929
 C          3.7076763432       -6.3614200472       -0.4812296723
 N          4.5636214153       -7.1286742344       -0.5269188395
 H         -2.0015474266       -4.2952948755       -0.5553223736
 H         -3.8986455767       -2.7572770206       -0.4750906927
 H         -2.3857736064        1.2175861240        1.7898718574
 H         -2.1119099115        3.6593463107        1.9177152548
 H         -3.2075550974        5.1178892642        0.2465292589
 H         -4.6081132593        4.1124662029       -1.5271790337
 H         -7.8563335517        0.1615721445       -2.0220587611
 H         -8.7665675681       -1.6422352067       -0.5924849943
 H         -7.3384606484       -2.6632864088        1.1478263891
 H         -4.9998339974       -1.9374688010        1.4088039138
 H         -1.2008304557        0.5242907000       -0.0349210335
 H          0.6238493330        1.1460414131        0.1699039936
 H          1.0603083389        2.6533893665       -1.5048178604
 H         -0.6771659593        4.3888288182       -1.3486354583
 H         -0.6739433746        5.9774285838        0.5480539325
 H          1.1001010182        5.8324468250        2.2659845424
 H          6.1108349900        4.7198888756        2.4766251025
 H          7.9054538113        4.0849970927        0.8945758528
 H          7.3739373629        2.6519360177       -1.0483185522
 H          5.0850489363        1.8026962733       -1.3670379037
 H          4.7906536893        0.2193223126        0.2980940904
 H          4.2624370098       -2.1531852359        0.0514533598
  72
  -125.109263410000       1.628284356376909E-002 !
 N          0.8867254494       -8.4309695343       -0.9141106211
 C          1.0792473753       -7.3066744643       -0.7650478503
 C          1.3255860316       -5.9369514006       -0.5774408253
 N          0.3187778618       -5.0684985210       -0.5664379418
 C          0.5640651330       -3.7618940134       -0.3892245217
 C         -0.5030408091       -2.8277795215       -0.3588518805
 C         -1.8300366918       -3.2597605809       -0.5470118334
 C         -2.8836484039       -2.3948010483       -0.4763685591
 C         -2.6612486821       -1.0294366621       -0.1922266778
 N         -3.7092533265       -0.1285778988       -0.0839919202
 C         -3.5015070779        1.2290934792        0.2227932154
 C         -2.7695388906        1.6178534553        1.3435654501
 C         -2.5726544052        2.9566610395        1.6203596298
 C         -3.1254561794        3.9288489681        0.7999231092
 C         -3.8914441969        3.5593840128       -0.2889689699
 C         -4.0836355207        2.2154508642       -0.5731164632
 S         -5.0874451001        1.7342372278       -1.9507053284
 C         -5.8161242307        0.3078311766       -1.1925287536
 C         -7.1388355424       -0.0112394771       -1.4568112524
 C         -7.7208691779       -1.0978937976       -0.8315115892
 C         -6.9929774281       -1.8374022494        0.0881855798
 C         -5.6744577960       -1.5190547942        0.3547353550
 C         -5.0549325579       -0.4684531281       -0.3176011499
 C         -1.3500387154       -0.5807601988       -0.1058068571
 C         -0.2554539506       -1.4432125829       -0.1696781694
 C          1.1030396199       -0.9798754027       -0.0513609172
 C          1.4263734518        0.3715247719        0.0721101225
 C          2.7369220243        0.8212315782        0.1634749383
 N          2.9976118712        2.1799865807        0.2498904404
 C          1.9803701679        3.1462699056        0.1411550573
 C          1.1126495053        3.1685814176       -0.9495793744
 C          0.1165733912        4.1219924746       -1.0314704821
 C         -0.0124289373        5.0849285477       -0.0415833140
 C          0.8681547879        5.1031266596        1.0229885518
 C          1.8637603220        4.1414082381        1.1113819274
 S          3.0119925244        4.1743520942        2.4594549437
 C          4.4313079660        3.6404437820        1.5426887396
 C          5.6791948185        4.1655941280        1.8398881143
 C          6.7796784778        3.7829777410        1.0962233594
 C          6.6237321704        2.9104647524        0.0299639142
 C          5.3794604820        2.3879620909       -0.2694749293
 C          4.2741022173        2.7110433971        0.5136655596
 C          3.7689919477       -0.1386338122        0.2520621543
 C          3.4797100323       -1.4675737445        0.1357860956
 C          2.1618897390       -1.9246622089       -0.0564837611
 C          1.9027100538       -3.3098713671       -0.2210141730
 N          2.9110465130       -4.1934369326       -0.2272356507
 C          2.6582086707       -5.4879889612       -0.3976354824
 C          3.7072635085       -6.4211919825       -0.4035248793
 N          4.5610870999       -7.1923794404       -0.4110154348
 H         -1.9934635231       -4.3064231640       -0.7521689396
 H         -3.8808722265       -2.7578982837       -0.6629653512
 H         -2.3602289554        0.8576681837        1.9920838989
 H         -1.9935141662        3.2420144686        2.4850192703
 H         -2.9791472540        4.9733811692        1.0245700003
 H         -4.3471339539        4.3007939275       -0.9267591496
 H         -7.6977815298        0.5973944785       -2.1505029070
 H         -8.7471474191       -1.3526497621       -1.0440916151
 H         -7.4553338750       -2.6625394040        0.6074456417
 H         -5.1163572619       -2.0751617957        1.0926919702
 H         -1.1773472534        0.4756569088        0.0032427845
 H          0.6330113463        1.0973260029        0.1110630253
 H          1.2303204953        2.4298129679       -1.7283062344
 H         -0.5551713805        4.1191793246       -1.8760484816
 H         -0.7838097922        5.8350401060       -0.1139654128
 H          0.7970070895        5.8567231850        1.7918546674
 H          5.7733791426        4.8692204902        2.6523744555
 H          7.7525946274        4.1836310964        1.3332802206
 H          7.4734295440        2.6400360024       -0.5776089320
 H          5.2517459798        1.7314959244       -1.1168372384
 H          4.7853336315        0.1681551897        0.4362956525
 H          4.2647177764       -2.2058549184        0.1911703778
