68
 energy: -108.649149230470 gnorm: 0.000044302016 xtb: 6.7.1 (edcfbbe)
C            5.00993743609779        5.33879640306534       -0.02574536707352
O            3.66496980909977        5.24157841054077       -0.44239479583353
C            2.95971766424570        4.12079443601272       -0.14097412766228
C            1.62336741261533        4.12904175273736       -0.60205508636186
C            0.77574942796009        3.06404047038862       -0.36100570072626
C            1.26815290409789        1.97514821269201        0.34330927689633
C            2.62732403615278        1.94012596887549        0.78579821789389
C            3.46907164440860        3.02911164525576        0.54796740461777
C            2.82581069998726        0.67892207472629        1.40987147260785
C            3.91240064548674        0.07032073319553        2.04306599749138
C            3.73111735726338       -1.16876463200393        2.62849237767539
C            2.48944229413987       -1.79819675822522        2.62361886173139
C            1.39535316459640       -1.21639867873261        1.98551421809491
C            1.58560138979974       -0.01214790557886        1.34220639926004
N            0.66072751144859        0.78153544975061        0.66339546317652
C           -0.60401656528069        0.37866134747089        0.26895001588197
C           -1.70996285194360        1.19868975535508        0.47909959244694
C           -2.98765530434460        0.77419303217889        0.17046722707533
C           -3.20454629356862       -0.51831173795251       -0.39034772323214
C           -2.10852235187222       -1.32231893005476       -0.61995995253311
C           -0.80816966423029       -0.91419718330316       -0.33409242962792
N            0.27299091423131       -1.70951887878486       -0.68570698995153
C            1.43182783521020       -1.27305898067376       -1.31205202392194
C            1.68396927675257       -0.07037676498109       -1.95009821904492
C            2.92817530294344        0.10731070804716       -2.53428433932033
C            3.89028549064102       -0.90077548983085       -2.50256691209076
C            3.62165424003827       -2.12652755414742       -1.92487784763918
C            2.37617076306024       -2.33028890503514       -1.33866451184942
C            1.74813414304554       -3.45633493847641       -0.72009152000219
C            2.16399613409603       -4.75621384402716       -0.44647007580430
C            1.29602611016615       -5.60740299009955        0.20910186566434
C            0.02942485042150       -5.17997984021842        0.60724119236960
C           -0.40983776014290       -3.89283758069953        0.34019182483859
C            0.44585107137101       -3.03941637207650       -0.33767971609395
C           -4.58703711779679       -0.96208797563402       -0.75770921572568
C           -5.64371740424641        0.02245184981793       -0.34686210864244
C           -6.98892540640014       -0.25908227251019       -0.53786379779939
C           -7.97130227686034        0.64385604483578       -0.17316031456626
C           -7.61311473996356        1.86040922876729        0.39633372737840
C           -6.28403306716660        2.16247213394113        0.59730051582222
C           -5.29519459911824        1.24857397621298        0.22702641169342
O           -4.00514768630197        1.63068308550433        0.45305912882651
H            5.62333558867564        4.55375365599161       -0.47774843651624
H            5.35310754722851        6.31269695492428       -0.37114163567215
H            5.09352422255963        5.28690412727209        1.06376214915056
H            1.28570284113436        4.99345119762817       -1.14965286862359
H           -0.23747235438588        3.08620935506135       -0.73064450012680
H            4.49007077560825        2.99391632768976        0.88936712393851
H            4.87156399478007        0.56419872642300        2.07744235019232
H            4.56337814446067       -1.65339829958612        3.11867288151475
H            2.36601204731195       -2.74845568936815        3.11993619856743
H            0.43012220330714       -1.69884802206871        2.01132282151392
H           -1.58473146208513        2.16270497439140        0.94666330721632
H           -2.25587301672632       -2.28361697731322       -1.09004197895634
H            0.93555856025282        0.70523322899757       -2.00921398988789
H            3.14987182256179        1.04225973094380       -3.02675767757879
H            4.85381768547456       -0.72369260928924       -2.95804203164352
H            4.35744178865644       -2.91652585768999       -1.93285506594229
H            3.15058248474047       -5.08516392918867       -0.73608140488529
H            1.60274213046249       -6.61983596921135        0.42872010038063
H           -0.61977054655874       -5.86202082814165        1.13574390085797
H           -1.38597009810533       -3.56857446789225        0.66784015127586
H           -4.79630414101644       -1.93611002091167       -0.30031398798288
H           -4.64434534177138       -1.11600659660873       -1.84316014486662
H           -7.26375029847619       -1.20538616424155       -0.98152062286172
H           -9.01165533849107        0.40391111731293       -0.33024910331929
H           -8.37393849157777        2.57039398613795        0.68324357273128
H           -5.97775833403214        3.09887438846231        1.03758009272040
