82
 energy: -127.596928731048 gnorm: 0.000105448577 xtb: 6.7.1 (edcfbbe)
C            9.15820101635114        1.21489549608034       -0.05248783371903
C            8.58028263620771       -0.17064047581292        0.24816360514186
C            9.20576643776946       -1.17237707108272       -0.73275633790195
C            8.95785468731173       -0.54471087248124        1.68837919546141
C            7.06718252702627       -0.21893706438840        0.10481825763636
C            6.30723027963721        0.88496247435146       -0.26141706407134
C            4.93096768759858        0.80355484780287       -0.38019029940770
C            4.28849102704297       -0.39713256724705       -0.14037114349512
N            2.86286584934484       -0.48785971426863       -0.26913040753827
C            2.34072700273087       -0.31821477254910       -1.54390810366961
O            3.06727929068551       -0.11735332503072       -2.49413585376408
C            0.87451959425563       -0.40784285335391       -1.65955480167337
C            0.27926050085222       -0.24445102829857       -2.89279488243410
C           -1.10806945467002       -0.33702501795249       -3.02384005637699
C           -1.89652588828658       -0.57093881114530       -1.92680357373356
C           -1.32417361281425       -0.72463733834201       -0.64836820627438
C           -2.09878851778605       -0.93095475064256        0.52499362027292
N           -3.50935370010000       -0.90601097230506        0.43572241336641
C           -4.23440035990598       -2.08385816172568        0.56639635309939
C           -3.55999262556024       -3.29229960698288        0.75886682778251
C           -4.25308416420167       -4.47599412030200        0.89802029709715
C           -5.63484720712053       -4.47537903342711        0.83534100758042
C           -6.30100535734642       -3.28532102528825        0.61132133757396
C           -5.62838945885681       -2.07879110062813        0.46666356780023
C           -6.41949233681111       -0.81615261658852        0.18000818155035
C           -7.18388294181398       -1.01256394183534       -1.14230847405331
C           -7.40597036484105       -0.57866564263421        1.33817242654534
C           -5.52472202980344        0.40347583284879        0.05324520490327
C           -6.11468338737043        1.64476286606180       -0.19713775445324
C           -5.39425536699930        2.81424775970010       -0.29368334513327
C           -4.02025774231466        2.74283491019009       -0.10825636645124
C           -3.41167719626444        1.50450035429213        0.14601095585581
O           -2.06036431716457        1.64617048046518        0.32432861654521
C           -1.78831117559847        2.96893587697784        0.17623955871601
C           -0.54295180072208        3.56398153387918        0.26501621288823
C           -0.48445513078698        4.93310428325700        0.07695868122263
C           -1.62963293453842        5.68000877044240       -0.18974475320193
C           -2.87151799807353        5.08248937147361       -0.27879538562152
C           -2.95395856893606        3.70852026113982       -0.09513954904976
C           -4.13868164783362        0.30918158203542        0.20484487592321
C           -1.48549054593974       -1.12609611919401        1.74263422505788
C           -0.09749494543015       -1.08057314780741        1.85377500329506
C            0.68590087434419       -0.83545788905430        0.74422640956595
C            0.08533568044643       -0.65920707857676       -0.51871790819485
C            2.14692696298081       -0.74480828877459        0.89326800603605
O            2.71324766558379       -0.87124918728022        1.95861886344658
C            5.02390442350968       -1.51280609482466        0.22311964045773
C            6.39532891355245       -1.41516266600278        0.34614033580829
H            8.76560772622421        1.96023205093147        0.63521567241235
H           10.23993960859914        1.18863988978397        0.06322324737988
H            8.93745604050615        1.51789669125415       -1.07324980058589
H           10.29098822708638       -1.13639034966991       -0.66359511124923
H            8.91577520736301       -0.92949375698934       -1.75278610527876
H            8.88506251318358       -2.18834904561039       -0.52079246766670
H            8.49503053217094        0.14666398321174        2.38929706030378
H            8.62973647530607       -1.54999481929796        1.93657269824670
H           10.03722334872042       -0.49695798587980        1.81682771971967
H            6.77576271459312        1.83478773906449       -0.45921957077418
H            4.35779779407725        1.67257633385133       -0.66652669431273
H            0.90710266406296       -0.04924486213181       -3.74914317985397
H           -1.55826323173833       -0.21997413066032       -3.99806019665761
H           -2.96913510619132       -0.63986685600584       -2.03521900970257
H           -2.48158473624768       -3.30234096299448        0.79242920616051
H           -3.71113363466180       -5.39702029954605        1.05073752180983
H           -6.18979712980924       -5.39403899528025        0.94710414930589
H           -7.37807142592062       -3.30361343087926        0.54440193924235
H           -7.77410846739759       -0.13369296594940       -1.38532990904771
H           -6.48097288331683       -1.18917179641446       -1.95437498950556
H           -7.85396934390199       -1.86511443343447       -1.07938629808798
H           -8.06941809474855       -1.42964544896398        1.46251188865559
H           -6.85692912483355       -0.43275909093835        2.26637286471503
H           -8.01476545812498        0.30259401357998        1.15824773654676
H           -7.18497268276227        1.69448824445962       -0.32144211978595
H           -5.87826124529279        3.75618701822934       -0.49445056461581
H            0.33705401456912        2.97649198446266        0.47368180250278
H            0.46988633749848        5.43376454222116        0.13858866165906
H           -1.54016165317455        6.74692682438083       -0.32913380366806
H           -3.75732107517249        5.66291622499900       -0.48605470776523
H           -2.09319488958022       -1.29105947770877        2.62021004918725
H            0.38432138090965       -1.21018341695900        2.81113113640643
H            4.52238318602055       -2.44963078769579        0.41335426838743
H            6.94609013269705       -2.29777597265433        0.63310132547603
