82
 energy: -127.596929143133 gnorm: 0.000060657987 xtb: 6.7.1 (edcfbbe)
C            9.45323683446889        1.06758406957670        0.25472881966690
C            8.86253628915719       -0.34102357011788        0.35991596361660
C            9.50148541427574       -1.21013537925611       -0.73245521032883
C            9.21054647534725       -0.90380306574270        1.74519989481006
C            7.35209517672819       -0.35837555950222        0.18462812327667
C            6.60505991102037        0.78995798763244       -0.04680018845538
C            5.23047215361079        0.73597365198185       -0.19657418080746
C            4.57663248973786       -0.48029886206527       -0.12480313998652
N            3.15217862247174       -0.54061643926919       -0.28243343755677
C            2.64865963253041       -0.20585242846371       -1.53171383800597
O            3.38980604960941        0.10463643673752       -2.44027555080633
C            1.18318734899079       -0.26268945831103       -1.67491104744677
C            0.60584085453624        0.06148952055331       -2.88467045213937
C           -0.78067028248522        0.00429545623637       -3.04196907562944
C           -1.58601657674614       -0.35319468507021       -1.99148607096905
C           -1.03216632203677       -0.67226244404524       -0.73570422312072
C           -1.82450194613865       -1.00940303827889        0.39486417892456
N           -3.23314939234231       -0.94719987739084        0.29520443230882
C           -3.98163748774523       -2.11755086274438        0.27852223216009
C           -3.33233550043395       -3.35354132162660        0.33253185097818
C           -4.04905224565713       -4.53132099877085        0.32403075631512
C           -5.42974414044781       -4.49568390983133        0.24901618417380
C           -6.07077296998068       -3.27442660317954        0.16101363108354
C           -5.37404157353297       -2.07291993290415        0.16673716717381
C           -6.13795713786083       -0.76991211805388        0.02251423673276
C           -6.88446571236331       -0.79248451084878       -1.32421805023960
C           -7.13858974950641       -0.65274039281830        1.18694507384071
C           -5.21961258702622        0.43826896074728        0.05433809276091
C           -5.78374024570686        1.71199679941091       -0.05026523265347
C           -5.04118509482363        2.87030611495968        0.00379195956573
C           -3.67134027338242        2.75017016187653        0.19461125026560
C           -3.08855237441826        1.47852898140504        0.30335614166311
O           -1.73745493149002        1.57136784962683        0.51252084092085
C           -1.43960484828428        2.89673040346795        0.52839020688058
C           -0.18481225316550        3.45219967017578        0.70110984644552
C           -0.09904837766283        4.83259474018179        0.68003199109575
C           -1.22703565651653        5.62846093543421        0.49373812121367
C           -2.47840301005298        5.07047412250328        0.32062137921686
C           -2.58809325955225        3.68626790813540        0.33615271987703
C           -3.83755224568851        0.29918792803698        0.20801143300190
C           -1.22919675938135       -1.36424462711804        1.58512055177686
C            0.15780295784943       -1.35496662145772        1.71569583418714
C            0.95848861332667       -0.98504159533878        0.65408816007194
C            0.37635575327018       -0.64400732690771       -0.58348981037670
C            2.41844824981833       -0.93357193740853        0.82978041985006
O            2.96960436263439       -1.20111464971467        1.87685968315438
C            5.29928808048211       -1.63992245300072        0.10020140478166
C            6.66916417079058       -1.57043202743979        0.25590602282954
H            9.05058510546284        1.71943705633721        1.02644755212323
H           10.53228379706397        1.01821935413874        0.38692919321645
H            9.25468139571107        1.50320460682261       -0.72164017642814
H           10.58536949883157       -1.19125137790352       -0.63952760761261
H            9.23202513066441       -0.83358041973673       -1.71690225177043
H            9.17209875088679       -2.24282064543548       -0.66136982821720
H            8.73650964890214       -0.30803488357508        2.52227299951771
H            8.87416051393991       -1.93102583282389        1.85242970957722
H           10.28735802345098       -0.87992513605478        1.89924206526263
H            7.08255318617748        1.75358895688399       -0.11188198971591
H            4.66743314802429        1.63961510230638       -0.37595647793545
H            1.24684770702953        0.35402528748774       -3.70269668286542
H           -1.21684456625313        0.24739130507215       -3.99911962366839
H           -2.65790811122722       -0.39337285561134       -2.11971598950861
H           -2.25476033701091       -3.38898919618266        0.37440504343559
H           -3.52631455731332       -5.47462426047729        0.37142388694545
H           -6.00315197332682       -5.40979866627894        0.24592620758842
H           -7.14709034603630       -3.26321932261217        0.08168157016950
H           -6.17199070296728       -0.88475219860004       -2.14189776477944
H           -7.57035188452259       -1.63336727411162       -1.37262449057255
H           -7.45507056752683        0.12045509244384       -1.46854182636700
H           -6.60223578097970       -0.63051074680773        2.13357890151477
H           -7.72778084810377        0.25602327987795        1.10577259463867
H           -7.82003410820101       -1.49846954882532        1.19881119367504
H           -6.85115751375020        1.79726252725096       -0.17991170534721
H           -5.50537876042325        3.83888504426828       -0.08672344970968
H            0.68168577330992        2.82674133508313        0.84641079341693
H            0.86341833093099        5.30345440506502        0.81109299617028
H           -1.11641218274437        6.70244277781640        0.48482731607325
H           -3.35086703218876        5.68884309313511        0.17587985779364
H           -1.84995771655152       -1.62643714391384        2.42926793727090
H            0.62566776049705       -1.61001002700010        2.65459824598121
H            4.78904769700255       -2.58945749606351        0.15873765631692
H            7.20979397033957       -2.48747264391287        0.43336205240692
