82
 energy: -127.529735513687 gnorm: 0.000118037064 xtb: 6.7.1 (edcfbbe)
C            9.45927713016991        1.04024158872751        0.24626864458341
C            8.85114647850861       -0.35886655508980        0.37663807576774
C            9.48499348315960       -1.25657790610726       -0.69563185634852
C            9.18767323231945       -0.89872135009474        1.77392015390720
C            7.34154321946802       -0.36243814834070        0.19489493939886
C            6.60755131259964        0.78960231460684       -0.06138693011332
C            5.23402110654389        0.74739655057688       -0.21827474108174
C            4.56273446672974       -0.46038068365710       -0.13053719492389
N            3.14620035105933       -0.50835494546307       -0.29787746040011
C            2.64086668664142       -0.09556588928969       -1.52688659938531
O            3.39382052595387        0.28065444807147       -2.41619985359330
C            1.19629937383408       -0.14460753356894       -1.67464318230076
C            0.61371224320129        0.25835910850621       -2.89745279291996
C           -0.74512916123298        0.20082892460206       -3.06026904253843
C           -1.57351693702744       -0.23223201268211       -2.01915504245819
C           -1.03235459018636       -0.61027500413475       -0.78457282098146
C           -1.81872535751862       -1.04558336770177        0.31412786994728
N           -3.22499321166203       -0.96578281388463        0.25308004172049
C           -3.97548960778117       -2.12673046219699        0.28561670881968
C           -3.32248780182615       -3.36701434053171        0.33126503250523
C           -4.03965811154197       -4.54005347931483        0.39169114811840
C           -5.42522757428245       -4.50198899345215        0.38093231310542
C           -6.07209961999551       -3.28433691709652        0.27818479368388
C           -5.37564655435699       -2.08438738131179        0.22296836175080
C           -6.13538893676886       -0.78738967007091        0.04659854453617
C           -6.89370938427731       -0.85445345967511       -1.29327116424322
C           -7.12732188523557       -0.62818028197012        1.21494897850983
C           -5.21633259786884        0.41653265576110        0.03213536936414
C           -5.77781940239490        1.68740837523074       -0.08750641445749
C           -5.02984963228723        2.84560858641767       -0.04879265971789
C           -3.66117150762687        2.72914164622896        0.15363676464856
C           -3.07365423450519        1.45814562484270        0.27154992178941
O           -1.73863173726600        1.55549097862498        0.49875043000969
C           -1.43693190729430        2.87888691204200        0.51680653015494
C           -0.18270108208373        3.43265707802037        0.70379569468208
C           -0.09731450673335        4.81232703538143        0.67766815286307
C           -1.22331503572174        5.60876794597778        0.47415296724757
C           -2.47331185036110        5.05300140660959        0.28669859888733
C           -2.58295007324689        3.66836279251579        0.30599946489081
C           -3.82593946434826        0.27402628836070        0.17187194220065
C           -1.21424354720472       -1.50060629569832        1.50725661076280
C            0.14106837190189       -1.47627574331033        1.65166036317152
C            0.96312739030985       -1.01105815638281        0.59276921229003
C            0.38172150344680       -0.58525259185508       -0.61812091026825
C            2.39867167842220       -0.97008755804428        0.78254072723374
O            2.94853384060981       -1.29903209680073        1.82806731375204
C            5.27512238578914       -1.62296751167295        0.12070476363270
C            6.64394845706508       -1.56561633957199        0.28460724769227
H            9.06172970209582        1.71159079703056        1.00381599287608
H           10.53748720164885        0.98093942840384        0.38267505239731
H            9.26801946696639        1.45915786786194       -0.73880511007681
H           10.56873883946191       -1.25024076971310       -0.59723735095394
H            9.22517277832653       -0.89505226692708       -1.68826830496227
H            9.14116153466980       -2.28316606742511       -0.60696635711277
H            8.71937164852647       -0.28110150021021        2.53731799075831
H            8.83589204602628       -1.91859693688480        1.90015495125510
H           10.26443784212636       -0.88701460273902        1.93113223789813
H            7.09580387389097        1.74710746542280       -0.13984427581362
H            4.68247133745733        1.65373905249415       -0.41712554650354
H            1.27106656259595        0.60310034958932       -3.67964380424076
H           -1.19466071536812        0.50352411800329       -3.99467978167323
H           -2.64254812787040       -0.26653376317727       -2.17404097713164
H           -2.24529528218703       -3.39959139350789        0.30675348091911
H           -3.51899790540289       -5.48403767474501        0.43478553036519
H           -5.99790494532030       -5.41510779068534        0.42830029210144
H           -7.15015051758321       -3.27608846147365        0.23454158765528
H           -6.18878883218373       -0.97755392676347       -2.11306721350542
H           -7.58260791306168       -1.69396012432156       -1.30503706408428
H           -7.46144501500050        0.05573321475584       -1.46247249306911
H           -6.58445456218034       -0.57302532180084        2.15635751902417
H           -7.71675905195401        0.27695887418623        1.10556061798189
H           -7.80909089209370       -1.47204746497193        1.26062807564164
H           -6.84503672569003        1.77514900995865       -0.21503342112083
H           -5.49314230282358        3.81303918908356       -0.15488580776776
H            0.68007033510936        2.80552691481056        0.85896650924517
H            0.86326666473746        5.28396284121682        0.81696863186681
H           -1.11111776687578        6.68238367053967        0.46174396276140
H           -3.34251701172056        5.67208665978739        0.12694872042627
H           -1.85438472581472       -1.80741218253916        2.32220230675853
H            0.62393433761225       -1.78080138850881        2.56623088923782
H            4.75479068764455       -2.56577661432738        0.19243376657971
H            7.17372769045847       -2.48541343029775        0.48127829501484
