78
 energy: -130.630605094876 gnorm: 0.000029270814 xtb: 6.7.1 (edcfbbe)
O            1.06365598168484       -2.10470005657022       -2.88415127233407
C            0.30126773574759       -2.56421054880331       -2.01432447708907
C           -0.84623505126363       -1.79476140218633       -1.51365957623764
C           -2.03093006618131       -2.40840718593148       -1.07682876981235
C           -3.07459290558646       -1.65540673901892       -0.59883121525728
C           -2.97203592146094       -0.26222100141082       -0.55889859356839
N           -4.01701792068399        0.50567625616076        0.01668479283341
C           -4.25690937541750        0.43114020465626        1.37975412843090
C           -3.50709512343300       -0.38547958505552        2.22797473978176
C           -3.77693276211756       -0.41946866961396        3.58282589538239
C           -4.79074124981660        0.35895015017044        4.12323813004636
C           -5.53698774903444        1.18489872142286        3.30108423866885
C           -5.27478781236992        1.22765158463744        1.94035852926879
O           -6.03203077832253        2.07386451498859        1.18312713182368
C           -5.79697793716674        2.11984643622491       -0.15954362973792
C           -6.59052746748560        2.96545409070093       -0.91966078177029
C           -6.40821590635277        3.03945754763987       -2.28953967219612
C           -5.43861650500160        2.25742973413134       -2.90116998212310
C           -4.64123760787828        1.41327433493898       -2.15244638043644
C           -4.79580507461222        1.33799998393466       -0.76756212682507
C           -1.83982146761227        0.36755539423750       -1.07043892068328
C           -0.80177305336060       -0.39166857611113       -1.55769723553659
C            0.47136296960181       -3.90555958953240       -1.43883566792417
C            0.80513387122885       -5.00802922827159       -2.22437065851858
C            0.82169167347698       -6.27306291408906       -1.67503802038264
C            0.50401340793096       -6.45690999461260       -0.33020919260987
C            0.22163011937079       -5.36962666657358        0.47116486752341
C            0.25051752627098       -4.08110175815448       -0.05779368535119
C            0.09128600643542       -2.89008995223226        0.79220099057773
O           -0.80171403303906       -2.80682702355649        1.65842512070338
C            1.06598275639877       -1.81076412695262        0.60132237237984
C            0.74655712180920       -0.52312097443799        1.06678236706744
C            1.64284423746393        0.51476448505243        0.96422633379874
C            2.89882647392490        0.29098853798799        0.40623976427407
N            3.82776571021470        1.35997634325367        0.29124174447412
C            3.60943948743180        2.37802486414988       -0.62123635026764
C            2.50772068889399        2.38364439079080       -1.47621947034892
C            2.31761689478897        3.42046616658072       -2.36945222228895
C            3.22287432153169        4.47003301432705       -2.43295405463120
C            4.33354740635440        4.47375482721730       -1.60692989662668
C            4.53394653707396        3.43614697323587       -0.70966977770887
O            5.65628049207579        3.48159467832845        0.06563622785589
C            5.86400828677489        2.46588393957779        0.95345460714319
C            7.00490637833118        2.52808156174877        1.73840104789736
C            7.25852161548052        1.53729810119108        2.67104541309737
C            6.36296789307057        0.48923614129639        2.82627140782610
C            5.22316387323839        0.41781018712975        2.04808902898079
C            4.95876701863961        1.39571560262753        1.08901094739137
C            3.24877630947644       -0.99003633160270       -0.02909010980851
C            2.34844528272707       -2.02335391134277        0.07229047638006
H           -2.11716558831087       -3.48470545283429       -1.10549754490447
H           -3.97702106741828       -2.13374611023829       -0.24768398511923
H           -2.71634050051340       -1.00004468174578        1.82635116864170
H           -3.18398013568435       -1.06160600366393        4.21501577185134
H           -4.99749461678753        0.32728020154211        5.18103575496099
H           -6.32597866075478        1.80812970873212        3.69047598050624
H           -7.34406210031245        3.55007545577021       -0.41686230541748
H           -7.02721347150722        3.69845943158262       -2.87693412528535
H           -5.30269435119919        2.30122650384286       -3.97034015163751
H           -3.89561959688986        0.79909033425600       -2.63141495794290
H           -1.77585188125367        1.44599457172422       -1.06126619776258
H            0.08693018227958        0.06991845001985       -1.96069906759562
H            1.01510867979839       -4.85072157193292       -3.27335711864516
H            1.06333856422567       -7.12645866270932       -2.29178916395863
H            0.49745749634292       -7.45248963064686        0.08899510463311
H            0.00783851987656       -5.49349746924585        1.52388247429204
H           -0.22519032519231       -0.37153779471880        1.51147717450038
H            1.38190222849445        1.50200549473536        1.31711366265344
H            1.81304176670710        1.56054341775672       -1.43596333391961
H            1.45902428738384        3.40388620501395       -3.02228431077311
H            3.07112496173204        5.27923624995724       -3.12915924293751
H            5.06181927898876        5.26796248583954       -1.64267238081864
H            7.67534973425426        3.36136317859201        1.60216637452033
H            8.14783343433018        1.58902208359113        3.27845161332805
H            6.54942425081016       -0.27891979716454        3.56025177086698
H            4.52482463104533       -0.39341012386198        2.17731974696310
H            4.22901647773221       -1.16101789456754       -0.44940800530057
H            2.63400765547344       -3.01106655301069       -0.25836400465926
