78
 energy: -130.684975957315 gnorm: 0.000113883922 xtb: 6.7.1 (edcfbbe)
O           -0.42970680304922       -0.19805544125743        1.39793857849907
C           -1.14447422081499        0.60242330143595        0.81279651026070
C           -2.57431679456623        0.34959091825716        0.55979624249715
C           -3.28318290074852        1.04271571735928       -0.42311380552039
C           -4.61049422296225        0.75108485540907       -0.65900306439171
C           -5.25982378732154       -0.23232488788019        0.08779868972088
N           -6.61618135545502       -0.52210258545195       -0.15020011520786
C           -7.03575046398750       -0.99743286811501       -1.39808835670931
C           -6.14538071281784       -1.25728826238860       -2.43331764808877
C           -6.59484251401525       -1.73244786658806       -3.65596218148535
C           -7.93911405776109       -1.97002224993408       -3.86230055558556
C           -8.83678585415217       -1.75063925033723       -2.82811920444802
C           -8.39264303869029       -1.27824812731050       -1.60638816462947
O           -9.33930501434764       -1.12257640141144       -0.62167213115309
C           -8.90933417599439       -0.67061327379451        0.60329124786742
C           -9.87322683905684       -0.51391949750931        1.58282027667109
C           -9.52709601228711       -0.02697224573854        2.83450224386112
C           -8.21503937685180        0.31925788375929        3.08879687123533
C           -7.24527086138152        0.16190144138200        2.11029951551195
C           -7.56812496297849       -0.35845519335073        0.86245831895659
C           -4.55383921394569       -0.93040553884257        1.06831560214382
C           -3.22431165149651       -0.64745708030822        1.29155097209082
C           -0.59355180935177        1.90641426238526        0.34994260817389
C           -1.17859966693641        3.11036642352663        0.72819778701886
C           -0.58784686597593        4.31078954084462        0.37394167282858
C            0.58879372855960        4.31880921569134       -0.35964892212707
C            1.18350917443155        3.12630144918884       -0.73364538753447
C            0.60197187188940        1.91449789497238       -0.37608506799872
C            1.15828641128490        0.62069498964534       -0.86146536134348
O            0.45119860805664       -0.16564385786388       -1.47421920187818
C            2.58467960397190        0.36183791195410       -0.59540691263547
C            3.24277811020133       -0.62283674167044       -1.33658079109162
C            4.56891046265409       -0.91183971985401       -1.10114646658236
C            5.26272127815660       -0.23270866186695       -0.09891285515076
N            6.61524017297267       -0.52962980101305        0.15240785012011
C            7.01574774694897       -1.03166670595058        1.39597325382461
C            6.10960416995453       -1.31203486826893        2.41199956373440
C            6.54017356460682       -1.81418544663421        3.63067735873505
C            7.88093454013091       -2.05808480889141        3.85185351780575
C            8.79434971101360       -1.81769321689952        2.83622984843037
C            8.36912931522988       -1.31845855129625        1.61845691118521
O            9.33055253231145       -1.14246427241837        0.65156964941317
C            8.91907860106814       -0.66455265958033       -0.56995673889146
C            9.89734631609620       -0.48818940114473       -1.53169775972125
C            9.56996023435234        0.02515205229451       -2.77791299796000
C            8.26187720386426        0.37712982775222       -3.04452504356777
C            7.27766445548590        0.19998214987129       -2.08399038326395
C            7.58200733667407       -0.34600831876934       -0.84247360241939
C            4.60536077342808        0.73861632306900        0.65655321629335
C            3.28170344839134        1.03670302677116        0.40845511382761
H           -2.78810576679621        1.79922540672289       -1.01225464594034
H           -5.15843488198922        1.28747458733826       -1.41930306412879
H           -5.08957857152857       -1.09717368621729       -2.28239923587122
H           -5.87966348964279       -1.91949228306083       -4.44220670945839
H           -8.29509072745186       -2.33564019553557       -4.81248059665999
H           -9.89086912215631       -1.94694651482626       -2.94632037195978
H          -10.89202402728678       -0.77374511666638        1.34163563673220
H          -10.28508065006226        0.08847279469670        3.59303662450091
H           -7.93256543386262        0.72011134159817        4.05010157359066
H           -6.22813305979160        0.45307816760355        2.31893357819033
H           -5.05202327994118       -1.70189135883316        1.63645723861340
H           -2.66002099458799       -1.19190404122391        2.03441908560106
H           -2.08720021513759        3.09854520527039        1.31159952720980
H           -1.04616558165746        5.24154907476230        0.67187601268795
H            1.04462553323654        5.25583181345995       -0.64132368213433
H            2.09249813964557        3.12693346645303       -1.31658000640776
H            2.68735888625782       -1.15326088854982       -2.09610884831379
H            5.07349610674978       -1.67390260606478       -1.67629746525923
H            5.05641055016422       -1.14682553872828        2.24877202053781
H            5.81310632016347       -2.01690999569943        4.40200316483394
H            8.22222725556610       -2.44490916909758        4.79902654037818
H            9.84631657989694       -2.01797200844302        2.96607775567735
H           10.91237969856809       -0.75382786504019       -1.28110364910151
H           10.33921181043667        0.15595431989211       -3.52248254526684
H            7.99382723043588        0.79785468967470       -4.00147543195630
H            6.26366850836141        0.49566258949961       -2.30151673855236
H            5.14429368108401        1.26027192349243        1.43342460168119
H            2.78019630650547        1.78412450458159        1.00369892939541
