78
 energy: -130.687350567327 gnorm: 0.000032320675 xtb: 6.7.1 (edcfbbe)
O            1.04762379261719       -2.50013146836121       -2.92907978870036
C            0.30151907285098       -2.83330430159681       -2.02200892699026
C           -0.80115741403725       -1.97490821511699       -1.54753630051132
C           -1.95797115692698       -2.50582491429168       -0.97377562508264
C           -2.94248812021247       -1.66878578101197       -0.49458941373185
C           -2.78709854082592       -0.28407841907345       -0.56468388713528
N           -3.75993032190445        0.56622620821871       -0.01538974245759
C           -4.08033310307770        0.49677910976199        1.34787164745904
C           -3.46403722027883       -0.39469249329629        2.21871986573590
C           -3.79488580994671       -0.42061432004234        3.56489404482537
C           -4.74065658276304        0.44933945878071        4.06992353922881
C           -5.34419500382747        1.36517540304388        3.22165547914019
C           -5.01385602013989        1.39733897293740        1.87847827524487
O           -5.62965372542973        2.36142425210064        1.11619765036338
C           -5.32814856698853        2.39696734611341       -0.22358658436765
C           -5.98994139206466        3.34176692589224       -0.98748333783918
C           -5.76792830088974        3.41718994137895       -2.35420980721741
C           -4.89780162407035        2.52632708045497       -2.95100549985357
C           -4.23162473853895        1.57893228815021       -2.18889114700234
C           -4.41223496802880        1.51518408882673       -0.81192945861014
C           -1.65451731888284        0.24916853062514       -1.18420172351006
C           -0.68383736846465       -0.58957835001373       -1.68291164327035
C            0.44527611019043       -4.14642819552285       -1.33682743505217
C            0.69842285027764       -5.27619856408611       -2.10860497056837
C            0.78072545354657       -6.52710391464311       -1.52283009840841
C            0.61013763231165       -6.66153320050637       -0.15394393729636
C            0.37795804856791       -5.54290230601226        0.62741193878194
C            0.31148122285513       -4.27759915645265        0.05336385766452
C            0.12083584303779       -3.10532386940545        0.95349010832774
O           -0.73206085751855       -3.11155520013859        1.82781816935440
C            1.04175055174923       -1.96613866556556        0.76959906098710
C            0.67909982496010       -0.72387426233721        1.29670675047201
C            1.49464779648623        0.37403120111630        1.14112487474453
C            2.71160126603382        0.24931826994063        0.46847266852660
N            3.54747471957849        1.36600563002637        0.29715161165881
C            3.10368787192709        2.49398442806984       -0.40480594145027
C            1.83363623729776        2.57371574816479       -0.96398879092774
C            1.43064626514416        3.70286117889117       -1.66038802495610
C            2.29228014049476        4.76976912041310       -1.82053414566024
C            3.57435137170401        4.69392997746723       -1.29804473295819
C            3.98203987682318        3.56703164686461       -0.60672308104308
O            5.28093394320910        3.55478606612921       -0.15816570258411
C            5.69356829099576        2.45420117294535        0.55348245036148
C            6.98712713427797        2.47740929940149        1.04338408244324
C            7.46651086034286        1.42184115305535        1.80413147759528
C            6.63385924036985        0.35800427653563        2.08992501886964
C            5.33735616956767        0.33034064778201        1.59975367596945
C            4.85413291722472        1.36021975504962        0.80078541728397
C            3.09793686875594       -0.99825841316156       -0.02312790202449
C            2.27291241718671       -2.09330210703401        0.12323787525800
H           -2.09877808381501       -3.57504835127534       -0.92373173286620
H           -3.84093231843305       -2.08189916376869       -0.06155525941893
H           -2.71482919849728       -1.07842117086588        1.85194863505141
H           -3.29922489546650       -1.12945078574613        4.21019696742668
H           -5.00577640974618        0.43020089753100        5.11521398883254
H           -6.07280957851564        2.07342936574769        3.58384233053041
H           -6.67997472980016        4.00596422106281       -0.49124416803598
H           -6.28512469792787        4.15961005209619       -2.94116821234601
H           -4.73219326910105        2.55554894053170       -4.01697775726157
H           -3.57137107263129        0.87685933124582       -2.67287390999216
H           -1.54107705242112        1.32061295245985       -1.25102856700548
H            0.20375800613645       -0.19485207478876       -2.15511782038886
H            0.81234242782016       -5.15484888455775       -3.17595073366542
H            0.97171680485511       -7.39540473000174       -2.13479507327184
H            0.66252304836503       -7.63603189052817        0.30716886248509
H            0.25857462368593       -5.63135976488958        1.69737210685635
H           -0.25769441620237       -0.64108942511869        1.82690365059779
H            1.20635107757855        1.32984408031189        1.55198125964168
H            1.15631888640328        1.74139584502756       -0.86247433510097
H            0.43782884047351        3.73811349745065       -2.08174928640235
H            1.98278877838283        5.65290675581177       -2.35663879463695
H            4.28231365947802        5.49806883534899       -1.42324356945383
H            7.60105981666120        3.33596036075737        0.82083530929730
H            8.47784298189902        1.44642662011714        2.17801596287207
H            6.98293697557757       -0.45965693737260        2.70153165742644
H            4.69259408948074       -0.49741137526050        1.84906222466439
H            4.04413929021707       -1.09879264279499       -0.53337033407412
H            2.59349078525784       -3.05102209509301       -0.25732799930880
