  78
       -130.63901591
 O          1.0863822343       -2.5974303006       -2.9200712657
 C          0.3463768500       -2.9021514835       -2.0021315740
 C         -0.7323125176       -2.0143617352       -1.5253710205
 C         -1.8950714832       -2.5118106860       -0.9361752037
 C         -2.8545512440       -1.6463762259       -0.4577185835
 C         -2.6675879761       -0.2667407416       -0.5453213222
 N         -3.6121637270        0.6124623229       -0.0000633919
 C         -3.9461420092        0.5491361746        1.3595052584
 C         -3.3729859285       -0.3700260660        2.2306113184
 C         -3.7183513375       -0.3896380243        3.5730959934
 C         -4.6352115176        0.5127418182        4.0736640097
 C         -5.1931532485        1.4564607002        3.2253345198
 C         -4.8475847531        1.4840857856        1.8860168994
 O         -5.4142397830        2.4763958328        1.1252336973
 C         -5.1008015879        2.5073740035       -0.2090015150
 C         -5.7156555974        3.4825129200       -0.9735429926
 C         -5.4794889799        3.5554386383       -2.3377060661
 C         -4.6444531436        2.6309925286       -2.9326247805
 C         -4.0251199536        1.6526935605       -2.1704080204
 C         -4.2174101136        1.5911786415       -0.7950823656
 C         -1.5290187554        0.2315703685       -1.1819784180
 C         -0.5821177748       -0.6348613720       -1.6772648492
 C          0.4645766926       -4.2179950412       -1.3109786536
 C          0.7217617265       -5.3412212702       -2.0907519275
 C          0.7934185202       -6.5993206549       -1.5209236645
 C          0.6062365536       -6.7490926892       -0.1561267313
 C          0.3669767695       -5.6382370259        0.6327931936
 C          0.3104509883       -4.3651520576        0.0748623726
 C          0.1097268346       -3.2136998533        1.0032185042
 O         -0.7173564802       -3.2602192747        1.8959495968
 C          1.0013802263       -2.0499360052        0.8190266206
 C          0.6170896451       -0.8236802167        1.3649384455
 C          1.3981893056        0.2969015085        1.1976615842
 C          2.5979049283        0.2128163277        0.4894120366
 N          3.3906033874        1.3536210787        0.2955907310
 C          2.8824066320        2.4743654270       -0.3704245180
 C          1.5836331517        2.5233765018       -0.8620924898
 C          1.1146004423        3.6472902598       -1.5245333425
 C          1.9373743014        4.7385885206       -1.7179822205
 C          3.2468378259        4.6925773490       -1.2651523389
 C          3.7211044311        3.5718464103       -0.6073471733
 O          5.0393434730        3.5893539650       -0.2292445917
 C          5.5207984572        2.4908749650        0.4366046602
 C          6.8417688490        2.5362288889        0.8441388624
 C          7.3905438509        1.4825919809        1.5588170872
 C          6.6008885279        0.3976694789        1.8831062663
 C          5.2773277467        0.3467098747        1.4743674721
 C          4.7235948947        1.3740822474        0.7197413016
 C          3.0075227082       -1.0207027693       -0.0177693942
 C          2.2202791878       -2.1399350759        0.1455805834
 H         -2.0584472026       -3.5762386728       -0.8720446997
 H         -3.7592092206       -2.0307957536       -0.0126211315
 H         -2.6491894093       -1.0808598477        1.8685442280
 H         -3.2570085128       -1.1199935440        4.2194482245
 H         -4.9111611750        0.4975218500        5.1159573750
 H         -5.8971955973        2.1900061621        3.5841664224
 H         -6.3815740760        4.1721042986       -0.4800953765
 H         -5.9594294228        4.3215993761       -2.9252666330
 H         -4.4701027169        2.6566972161       -3.9971392020
 H         -3.3952021080        0.9230656703       -2.6532097918
 H         -1.3952231045        1.2994529644       -1.2633818162
 H          0.3116288168       -0.2671160608       -2.1578124059
 H          0.8533708348       -5.2080095432       -3.1542788460
 H          0.9901136194       -7.4608182640       -2.1407791190
 H          0.6508174127       -7.7290114400        0.2943392902
 H          0.2306231105       -5.7397629717        1.6992631492
 H         -0.3079203815       -0.7697072612        1.9172752749
 H          1.0963128873        1.2421367376        1.6224853927
 H          0.9374130124        1.6719165139       -0.7359488761
 H          0.0998438621        3.6586052874       -1.8933527672
 H          1.5758730122        5.6169567914       -2.2282704339
 H          3.9247056091        5.5164212055       -1.4204795988
 H          7.4220393845        3.4102395947        0.5954193624
 H          8.4227909925        1.5235217055        1.8675972299
 H          7.0044443445       -0.4192012799        2.4611736019
 H          4.6668066665       -0.4971455199        1.7529699243
 H          3.9411122387       -1.0881132024       -0.5549285047
 H          2.5574237406       -3.0860350338       -0.2473775505
