  55
  -91.0589262200000       0.190894721925232      !
 C         -1.6487193161        3.0798695708        2.3560186114
 C         -1.0960678313        1.9032708035        2.8321833552
 C         -1.4127272166        0.6929958732        2.2444976061
 C         -2.2786177886        0.6368524981        1.1522896146
 C         -2.8710225870        1.8311823146        0.7110743434
 C         -2.5494002327        3.0401975915        1.3046703690
 O         -3.7944998398        1.8536737930       -0.2956845762
 C         -4.0705802204        0.6732767208       -0.9270174502
 C         -4.9795293311        0.7191416127       -1.9713098629
 C         -5.2863214353       -0.4301195175       -2.6791731076
 C         -4.6642557247       -1.6210990548       -2.3498272136
 C         -3.7583032543       -1.6748627819       -1.3056092781
 C         -3.4603398908       -0.5371161138       -0.5602983083
 N         -2.5892217333       -0.5635171743        0.5275926314
 C         -1.7201351656       -1.6645522239        0.7104306307
 C         -2.1896350543       -2.9169624275        1.0909043631
 C         -1.3157372615       -3.9860115802        1.1872278394
 C          0.0328303091       -3.8253632601        0.9104349216
 C          0.5424254511       -2.5811057526        0.5420156472
 N          1.8367092324       -2.3721307969        0.3026817977
 C          2.3119453093       -1.1648314119        0.0213016665
 C          3.7091630062       -0.9626344670       -0.2137575584
 C          4.5784490438       -2.0625113905       -0.1389510354
 C          5.9223096670       -1.9121958803       -0.3624570426
 C          6.4318180670       -0.6499380472       -0.6687548850
 C          5.5959653661        0.4381562337       -0.7428997530
 C          4.2159805068        0.3229918366       -0.5168907238
 C          3.3137484628        1.4494807191       -0.5760405345
 C          3.7399813557        2.7587668260       -0.8435370258
 C          2.8561414445        3.8104856485       -0.8817442873
 C          1.4959380152        3.5990345662       -0.6519285551
 C          1.0429212522        2.3325889753       -0.3911486012
 C          1.9317801401        1.2457710380       -0.3485290761
 C          1.4261260278       -0.0571839743       -0.0593661442
 N          0.1271085430       -0.2537399764        0.1523780457
 C         -0.3532127903       -1.4556012292        0.4472071879
 H         -1.3928028408        4.0256582000        2.8065803301
 H         -0.4117114860        1.9239508898        3.6658522028
 H         -0.9945767918       -0.2214558582        2.6332715420
 H         -3.0151206763        3.9359254028        0.9262192213
 H         -5.4264756930        1.6689611705       -2.2167616524
 H         -5.9961314494       -0.3878337571       -3.4900074968
 H         -4.8799231780       -2.5190579003       -2.9076949776
 H         -3.2683244389       -2.6056616396       -1.0703076355
 H         -3.2367216823       -3.0369549342        1.3242407836
 H         -1.6866091771       -4.9537024004        1.4878927526
 H          0.7212902389       -4.6496418694        1.0056998680
 H          4.1521403602       -3.0254106512        0.0977073526
 H          6.5849674241       -2.7630825009       -0.3053689305
 H          7.4900584199       -0.5275496615       -0.8486020900
 H          6.0229758865        1.3990937616       -0.9825975372
 H          4.7845954543        2.9583668020       -1.0228939072
 H          3.2164787678        4.8072669425       -1.0903059482
 H          0.8065882053        4.4298665673       -0.6791865069
 H         -0.0026405955        2.1409867125       -0.2046649093
  55
  -91.0589237600000       0.190398438783979      !
 C         -4.1237209090        1.9053677747        3.8256488744
 C         -3.5108168564        0.7035545413        4.1320082518
 C         -2.9714051639       -0.0848731882        3.1313281916
 C         -3.0414868837        0.3082010316        1.7974193889
 C         -3.6346041137        1.5462947509        1.5023928879
 C         -4.1756728579        2.3292064151        2.5090434893
 O         -3.6948010458        2.0453444007        0.2314300063
 C         -3.1287556249        1.3035212252       -0.7665189321
 C         -3.1351632242        1.8442027973       -2.0413144950
 C         -2.6089226859        1.1267161667       -3.1026967360
 C         -2.1065148774       -0.1455282745       -2.8902426076
 C         -2.0975519741       -0.6918297708       -1.6205421079
 C         -2.5764878904        0.0341819446       -0.5299005767
 N         -2.5503456305       -0.4816307337        0.7588016476
 C         -1.6631523481       -1.5463167929        1.0429910101
 C         -2.0849445764       -2.7033358610        1.6887071783
 C         -1.1684946895       -3.6861616718        2.0206356467
 C          0.1751081729       -3.5334097772        1.7167408462
 C          0.6321373230       -2.3947210054        1.0547478868
 N          1.9081077153       -2.2206419656        0.7117495141
 C          2.3087741936       -1.1646864183        0.0139162191
 C          3.6820320505       -1.0086305877       -0.3580677719
 C          4.6105503849       -1.9836113733        0.0399397926
 C          5.9355455190       -1.8684749830       -0.2912569548
 C          6.3657147249       -0.7693909182       -1.0353333350
 C          5.4702051609        0.1928945159       -1.4356957591
 C          4.1068479080        0.1086268184       -1.1150197551
 C          3.1410156275        1.1016107523       -1.5247106615
 C          3.4746838449        2.2194779794       -2.3034323514
 C          2.5293712395        3.1432363891       -2.6801249664
 C          1.1977696107        2.9902286461       -2.2915736183
 C          0.8355452662        1.9112897993       -1.5288790976
 C          1.7877225879        0.9559063551       -1.1369373847
 C          1.3695145630       -0.1678850081       -0.3629607290
 N          0.0974351925       -0.3101147183        0.0013650492
 C         -0.3124608914       -1.3693645919        0.6884292610
 H         -4.5486268727        2.5185687845        4.6043683934
 H         -3.4453618626        0.3727477400        5.1570104253
 H         -2.4806712991       -1.0100590451        3.3859408185
 H         -4.6236170011        3.2715608644        2.2369674607
 H         -3.5545617687        2.8280341268       -2.1776506722
 H         -2.6048992767        1.5581637282       -4.0910914469
 H         -1.7159424951       -0.7189759849       -3.7161259161
 H         -1.7237672395       -1.6911623816       -1.4654709530
 H         -3.1338839709       -2.8286774154        1.9107528902
 H         -1.5041165018       -4.5837934714        2.5166356460
 H          0.8894742694       -4.3048455467        1.9556163733
 H          4.2456539916       -2.8204086930        0.6157988967
 H          6.6449374787       -2.6201196454        0.0216858663
 H          7.4094540982       -0.6739948150       -1.2973253073
 H          5.8368598806        1.0303991082       -2.0079191608
 H          4.4938990529        2.3671159426       -2.6237305897
 H          2.8185055203        3.9925959589       -3.2818244086
 H          0.4586620065        3.7179062817       -2.5923461276
 H         -0.1877920429        1.7649548753       -1.2193244426
  55
  -91.0585328500000       0.125896479398275      !
 C         -3.8846098506        1.9058715692        3.9196799280
 C         -3.3653661686        0.6495042087        4.1773938374
 C         -2.9148250358       -0.1495105007        3.1418386122
 C         -2.9825300357        0.2879907278        1.8217948297
 C         -3.4881966605        1.5741648834        1.5746531027
 C         -3.9376687013        2.3691626639        2.6165184147
 O         -3.5497106418        2.1085923563        0.3180807446
 C         -3.0891384989        1.3452717068       -0.7166964290
 C         -3.1179946353        1.9055623946       -1.9829848202
 C         -2.6943869926        1.1700147183       -3.0773994065
 C         -2.2652725405       -0.1354148846       -2.9056233462
 C         -2.2309823059       -0.6998720121       -1.6447339529
 C         -2.6151576465        0.0375101478       -0.5246971036
 N         -2.5725296430       -0.5070747472        0.7513416361
 C         -1.6939821111       -1.5924208666        0.9881289231
 C         -2.1139550775       -2.7618115823        1.6106269698
 C         -1.1965244866       -3.7537978522        1.9132147801
 C          0.1472230200       -3.5888947155        1.6173316130
 C          0.6023119000       -2.4339730879        0.9824161665
 N          1.8831450817       -2.2326855153        0.6748743432
 C          2.2813559664       -1.1626561125       -0.0024289516
 C          3.6667138935       -0.9517709990       -0.2945390080
 C          4.6141522190       -1.8631670772        0.1977793405
 C          5.9530284119       -1.6742773154       -0.0273523305
 C          6.3787849307       -0.5633143387       -0.7561827238
 C          5.4642926563        0.3321437064       -1.2563361207
 C          4.0863791650        0.1679362558       -1.0503709027
 C          3.1003390303        1.0867033192       -1.5695876117
 C          3.4229434028        2.1587331032       -2.4142719103
 C          2.4592316026        3.0145726816       -2.8916171635
 C          1.1210108968        2.8391377882       -2.5369613503
 C          0.7689989341        1.8008387999       -1.7151145933
 C          1.7382964448        0.9079702503       -1.2294847720
 C          1.3288372272       -0.1961444824       -0.4230098344
 N          0.0535879418       -0.3544446493       -0.0747502719
 C         -0.3478149405       -1.4128830017        0.6182821434
 H         -4.2364582864        2.5295828860        4.7260661173
 H         -3.3039649105        0.2842137078        5.1907657706
 H         -2.4947252332       -1.1183283999        3.3577935341
 H         -4.3143624152        3.3518737102        2.3821751468
 H         -3.4724246751        2.9186327260       -2.0864640287
 H         -2.7085603714        1.6154342666       -4.0594584043
 H         -1.9498825706       -0.7185427891       -3.7565803297
 H         -1.9062653971       -1.7199961756       -1.5150134824
 H         -3.1612661505       -2.8893841748        1.8389029080
 H         -1.5305431418       -4.6641225642        2.3866349784
 H          0.8650504947       -4.3600268767        1.8467037423
 H          4.2530979567       -2.7069071790        0.7658135858
 H          6.6769438611       -2.3754893224        0.3605290659
 H          7.4338044461       -0.4058284081       -0.9272577829
 H          5.8265107013        1.1836744677       -1.8105191127
 H          4.4471076237        2.3182825058       -2.7126731799
 H          2.7389390107        3.8269474973       -3.5465013617
 H          0.3674845821        3.5151104360       -2.9131771634
 H         -0.2594936592        1.6358799862       -1.4347235779
  55
  -91.0584491300000       0.115222829923511      !
 C         -1.7415109873        3.1598715575        2.2802793746
 C         -1.2435341763        2.0008465639        2.8516089779
 C         -1.5332835017        0.7680346637        2.2980877686
 C         -2.3205058072        0.6712508995        1.1507755072
 C         -2.8558567666        1.8499666240        0.6063953504
 C         -2.5580428525        3.0821280096        1.1640983951
 O         -3.6938044979        1.8349260470       -0.4722033578
 C         -3.9518274481        0.6261797002       -1.0560166739
 C         -4.7769375710        0.6304417326       -2.1689719595
 C         -5.0625279114       -0.5520757651       -2.8292976255
 C         -4.5064153590       -1.7368516458       -2.3803330378
 C         -3.6830508912       -1.7485049097       -1.2687746927
 C         -3.4038305552       -0.5737079692       -0.5754916278
 N         -2.6090391643       -0.5561435928        0.5705788179
 C         -1.7345406878       -1.6413419078        0.8229639848
 C         -2.1983820957       -2.8811929148        1.2458337109
 C         -1.3188059594       -3.9427294189        1.3749506079
 C          0.0236597420       -3.7904611290        1.0665674451
 C          0.5256894736       -2.5582829392        0.6497868916
 N          1.8076247764       -2.3639069909        0.3425095578
 C          2.2789632492       -1.1625822141        0.0310290469
 C          3.6534989052       -0.9826489199       -0.3257662349
 C          4.4892773816       -2.1072662615       -0.4113178885
 C          5.8011320427       -1.9797964669       -0.7874295533
 C          6.3119816418       -0.7165477549       -1.0873040066
 C          5.5113894123        0.3965843916       -0.9969813068
 C          4.1662200446        0.3047539853       -0.6097885532
 C          3.3016966090        1.4562589991       -0.4976056509
 C          3.7580600308        2.7735507138       -0.6498034331
 C          2.9075177291        3.8474961372       -0.5382011906
 C          1.5512080483        3.6495626518       -0.2760320453
 C          1.0710306040        2.3760545510       -0.1174299227
 C          1.9286300255        1.2677306345       -0.2112159731
 C          1.4080131400       -0.0402459802        0.0240097265
 N          0.1127043088       -0.2284655786        0.2681528521
 C         -0.3678346341       -1.4304599223        0.5610108643
 H         -1.5046293231        4.1230259727        2.7037970570
 H         -0.6215675523        2.0542823304        3.7313645098
 H         -1.1529263184       -0.1336568029        2.7510593677
 H         -2.9746446357        3.9653960738        0.7068673961
 H         -5.1742045278        1.5745033930       -2.5058097824
 H         -5.7050178258       -0.5418788812       -3.6953986460
 H         -4.7078892405       -2.6622482613       -2.8973158886
 H         -3.2419261127       -2.6752333758       -0.9396445679
 H         -3.2450350892       -2.9982407787        1.4825939907
 H         -1.6827316565       -4.9000352431        1.7147605947
 H          0.7131486638       -4.6133016231        1.1668333557
 H          4.0609887855       -3.0712022514       -0.1826180595
 H          6.4363070889       -2.8501818394       -0.8593555454
 H          7.3421989499       -0.6137302479       -1.3955997549
 H          5.9342996763        1.3576239612       -1.2438560555
 H          4.8017706155        2.9610755796       -0.8471239635
 H          3.2915626156        4.8508915918       -0.6512177254
 H          0.8866241657        4.4964472807       -0.1900863456
 H          0.0299416110        2.1959667931        0.1002237495
  55
  -91.0582896200000       9.732688348878882E-002 !
 C         -4.6335880474        1.6713957070        3.7225299533
 C         -3.9434210988        0.5216693612        4.0625263641
 C         -3.2169874747       -0.1699875178        3.1095643528
 C         -3.1744859189        0.2648053518        1.7868498299
 C         -3.8308336087        1.4653993484        1.4684104146
 C         -4.5617025144        2.1498720538        2.4258488143
 O         -3.7696343056        2.0275819211        0.2244638412
 C         -3.0688233756        1.3578914913       -0.7383830135
 C         -2.9806765687        1.9504289000       -1.9865928931
 C         -2.3299755906        1.2974412374       -3.0206047903
 C         -1.8104492026        0.0314767587       -2.8136904133
 C         -1.8929112949       -0.5649141799       -1.5689796385
 C         -2.4807414811        0.1060152353       -0.4950869159
 N         -2.5177360283       -0.4429259357        0.7799687960
 C         -1.6171116352       -1.4823970930        1.1006087931
 C         -2.0380959720       -2.6433638087        1.7439158130
 C         -1.1178622483       -3.6054400105        2.1205790011
 C          0.2300860625       -3.4431282952        1.8429215209
 C          0.6849456157       -2.3156981357        1.1605319151
 N          1.9577086397       -2.1636373828        0.7947389478
 C          2.3548340328       -1.1358302106        0.0545529356
 C          3.7092042861       -1.0387606605       -0.3983568196
 C          4.6197766555       -2.0468203481       -0.0439313370
 C          5.9206666396       -2.0010338231       -0.4731329239
 C          6.3439153948       -0.9396386172       -1.2736939226
 C          5.4664288439        0.0562841915       -1.6291915014
 C          4.1282196067        0.0433219283       -1.2075305059
 C          3.1804841430        1.0718071661       -1.5690532540
 C          3.5127391744        2.1678413533       -2.3788406600
 C          2.5851045168        3.1258111854       -2.7112376599
 C          1.2746588887        3.0330306344       -2.2405723958
 C          0.9148723803        1.9773333201       -1.4448048067
 C          1.8471922082        0.9843605659       -1.1019364971
 C          1.4270991823       -0.1210337991       -0.3025251451
 N          0.1606587053       -0.2393379176        0.0893701271
 C         -0.2584251236       -1.2951903011        0.7779327486
 H         -5.2108031984        2.2042384406        4.4613545598
 H         -3.9659377621        0.1542432170        5.0767529885
 H         -2.6677073028       -1.0510278646        3.3976321802
 H         -5.0568451621        3.0616216609        2.1323875584
 H         -3.4265401096        2.9225572862       -2.1237303856
 H         -2.2469665509        1.7717856329       -3.9855125762
 H         -1.3316574768       -0.4973541790       -3.6227784487
 H         -1.5140893689       -1.5637691209       -1.4251062341
 H         -3.0921617477       -2.7923515403        1.9227515789
 H         -1.4552970682       -4.4994086683        2.6220001564
 H          0.9469900325       -4.2055257382        2.1020099294
 H          4.2600075406       -2.8547905164        0.5746316039
 H          6.6157445721       -2.7798718126       -0.1964917101
 H          7.3677471287       -0.9008548745       -1.6163196430
 H          5.8271778946        0.8621280435       -2.2486189231
 H          4.5169887722        2.2712782798       -2.7583504864
 H          2.8721832859        3.9558529154       -3.3402959432
 H          0.5496676377        3.7887993102       -2.5039959841
 H         -0.0916978677        1.8798570280       -1.0690284898
  55
  -91.0580273900000       7.374290687339667E-002 !
 C         -4.7270842684        1.6135375839        3.7014197772
 C         -3.9656176170        0.5150122775        4.0578772191
 C         -3.2006610675       -0.1466385385        3.1137398270
 C         -3.1894075927        0.2675709211        1.7836699846
 C         -3.9125247386        1.4251538284        1.4501768794
 C         -4.6841663183        2.0772370747        2.3979164297
 O         -3.8789220542        1.9750162860        0.1997334136
 C         -3.1307103074        1.3395779884       -0.7510045578
 C         -3.0622664169        1.9293033845       -2.0014431797
 C         -2.3693388687        1.3055982450       -3.0262468674
 C         -1.7907001384        0.0677623357       -2.8084438346
 C         -1.8547644634       -0.5269426058       -1.5614181569
 C         -2.4810680866        0.1206616081       -0.4951933312
 N         -2.5006100616       -0.4184468926        0.7841507117
 C         -1.5959085338       -1.4509432280        1.1116334459
 C         -2.0205145957       -2.6080265252        1.7609405737
 C         -1.1048313029       -3.5714281837        2.1434093270
 C          0.2436977280       -3.4152737300        1.8646203156
 C          0.7023000248       -2.2919071515        1.1783624219
 N          1.9749896047       -2.1499848986        0.8085109712
 C          2.3768667989       -1.1284933991        0.0625279653
 C          3.7272024493       -1.0508141791       -0.4056879346
 C          4.6250898839       -2.0757800616       -0.0676994400
 C          5.9191094470       -2.0529582979       -0.5188440957
 C          6.3480612924       -0.9978152839       -1.3246286287
 C          5.4836288347        0.0157034572       -1.6620000770
 C          4.1526940944        0.0264458962       -1.2176112104
 C          3.2172416096        1.0722436567       -1.5611899729
 C          3.5603576789        2.1715440371       -2.3618667340
 C          2.6441014073        3.1449958270       -2.6804484770
 C          1.3341681665        3.0639344109       -2.2061650652
 C          0.9639804450        2.0058291081       -1.4183194617
 C          1.8856310400        0.9991632156       -1.0863186611
 C          1.4569506928       -0.1045123484       -0.2889140020
 N          0.1904334505       -0.2127850136        0.1059423443
 C         -0.2358083072       -1.2669851113        0.7931262436
 H         -5.3368083964        2.1199979598        4.4326474020
 H         -3.9622988633        0.1640603469        5.0781626369
 H         -2.5980657310       -0.9879840189        3.4139113419
 H         -5.2337775384        2.9529847858        2.0919917875
 H         -3.5592849884        2.8747260632       -2.1489270094
 H         -2.3029365178        1.7783346492       -3.9932440591
 H         -1.2805188445       -0.4413486171       -3.6109827026
 H         -1.4351144457       -1.5083875798       -1.4136912157
 H         -3.0753661972       -2.7510487099        1.9402319310
 H         -1.4458679462       -4.4618248988        2.6486747920
 H          0.9577843607       -4.1798657703        2.1249583044
 H          4.2607037130       -2.8789608206        0.5543995363
 H          6.6040912796       -2.8455561851       -0.2563968414
 H          7.3658790055       -0.9784112992       -1.6863778233
 H          5.8484725822        0.8154857324       -2.2868866303
 H          4.5646088775        2.2661111262       -2.7436723236
 H          2.9398595519        3.9781325706       -3.3013257986
 H          0.6181668605        3.8315256690       -2.4598478488
 H         -0.0427172413        1.9172489606       -1.0399812158
  55
  -91.0579537300000       6.821320587052411E-002 !
 C         -3.7731118479        1.8514098740        3.9890870129
 C         -3.1649603928        0.6281884044        4.2087153780
 C         -2.7474059491       -0.1491325209        3.1432964872
 C         -2.9353979997        0.2787629583        1.8315999235
 C         -3.5260765110        1.5350238026        1.6215448114
 C         -3.9457669789        2.3063111335        2.6930320815
 O         -3.7029947472        2.0595935483        0.3718549799
 C         -3.2287926059        1.3396618217       -0.6886316309
 C         -3.3361254206        1.9128450682       -1.9441903880
 C         -2.9070136919        1.2183048153       -3.0633737870
 C         -2.3919614221       -0.0594616288       -2.9250311884
 C         -2.2801275463       -0.6379446783       -1.6741867175
 C         -2.6717030196        0.0595347842       -0.5320027867
 N         -2.5614795727       -0.4953568770        0.7340140570
 C         -1.6862769239       -1.5904659367        0.9323962439
 C         -2.1125759250       -2.7611667234        1.5488395808
 C         -1.2032765316       -3.7635433298        1.8398775588
 C          0.1426629090       -3.5994071222        1.5534954552
 C          0.6046863414       -2.4391371769        0.9336879986
 N          1.8914562610       -2.2272345780        0.6613387293
 C          2.2986680929       -1.1543974475       -0.0054306906
 C          3.6914816385       -0.9167717834       -0.2344304421
 C          4.6350962157       -1.7877276331        0.3325957375
 C          5.9785386028       -1.5613865813        0.1810657187
 C          6.4125284653       -0.4537248047       -0.5479351152
 C          5.5024255659        0.4002397346       -1.1233247175
 C          4.1205930746        0.1963897288       -0.9940295264
 C          3.1381653970        1.0693372666       -1.5932420942
 C          3.4747709573        2.1083906717       -2.4725213921
 C          2.5147546605        2.9210163224       -3.0268153641
 C          1.1669019640        2.7336959105       -2.7173917498
 C          0.8008723622        1.7262003529       -1.8635363714
 C          1.7668877382        0.8757951743       -1.3006659453
 C          1.3473310122       -0.2070020583       -0.4707002809
 N          0.0663682246       -0.3661488335       -0.1431405448
 C         -0.3410276000       -1.4172084118        0.5574280596
 H         -4.1020640519        2.4565675851        4.8189139512
 H         -3.0091753572        0.2710296380        5.2148717052
 H         -2.2627417823       -1.0940783516        3.3281355918
 H         -4.3950191777        3.2646487719        2.4873055973
 H         -3.7583606180        2.9020166580       -2.0209703750
 H         -2.9857018025        1.6734807785       -4.0379877980
 H         -2.0709580934       -0.6111254517       -3.7946625825
 H         -1.8930028917       -1.6388928397       -1.5724435801
 H         -3.1589883598       -2.8760555096        1.7877735988
 H         -1.5432928765       -4.6764302726        2.3038143616
 H          0.8583067347       -4.3720199578        1.7846362052
 H          4.2670471310       -2.6283757295        0.9007436577
 H          6.6993434732       -2.2296952183        0.6283809840
 H          7.4705402347       -0.2651639146       -0.6581445993
 H          5.8700352258        1.2522559881       -1.6732799783
 H          4.5068994834        2.2721816874       -2.7397524671
 H          2.8048079838        3.7067002897       -3.7091753396
 H          0.4166967106        3.3754321881       -3.1552115466
 H         -0.2356222572        1.5511167716       -1.6192845756
  55
  -91.0579313900000       6.661955198497055E-002 !
 C         -1.9022227370        3.2053901219        2.3001558986
 C         -1.3557373472        2.0671109950        2.8686947666
 C         -1.5868008328        0.8246793064        2.3081955490
 C         -2.3627458771        0.6985709304        1.1564884082
 C         -2.9409522334        1.8560278760        0.6095324113
 C         -2.7037873243        3.0971080507        1.1756189610
 O         -3.7659641830        1.8103438181       -0.4787340699
 C         -3.9494290965        0.5979970656       -1.0826033017
 C         -4.7379182568        0.5753898601       -2.2215266720
 C         -4.9485871524       -0.6128578188       -2.8997454168
 C         -4.3559111021       -1.7760465578       -2.4412154281
 C         -3.5691048770       -1.7611194416       -1.3035285888
 C         -3.3634175268       -0.5806287157       -0.5943644515
 N         -2.6042851588       -0.5370326981        0.5745840924
 C         -1.7264308976       -1.6108065191        0.8623111405
 C         -2.1955217482       -2.8440323395        1.2984987084
 C         -1.3188501465       -3.9046411587        1.4516642059
 C          0.0238882070       -3.7609857389        1.1403349352
 C          0.5288605617       -2.5373885679        0.7025712926
 N          1.8059484041       -2.3574815074        0.3684493358
 C          2.2820327184       -1.1632563678        0.0387236441
 C          3.6428330966       -1.0028327207       -0.3753460685
 C          4.4519715356       -2.1409369435       -0.5188914070
 C          5.7430946828       -2.0318563078       -0.9664226546
 C          6.2594152738       -0.7742967061       -1.2805323825
 C          5.4864585772        0.3521256509       -1.1303533258
 C          4.1639180890        0.2789281686       -0.6687256880
 C          3.3289337144        1.4438447372       -0.4900033160
 C          3.8087720316        2.7550447298       -0.6189428321
 C          2.9873318444        3.8424493799       -0.4395949896
 C          1.6383169355        3.6646117094       -0.1296487358
 C          1.1352354669        2.3971028584        0.0060693197
 C          1.9638009497        1.2746429165       -0.1569869830
 C          1.4260762530       -0.0292678067        0.0617603150
 N          0.1313201493       -0.2047913599        0.3187300634
 C         -0.3576712796       -1.4036879119        0.6099552565
 H         -1.7147612320        4.1758243785        2.7318646531
 H         -0.7421347497        2.1442261308        3.7525955869
 H         -1.1706555773       -0.0609813938        2.7609018430
 H         -3.1555327805        3.9630532612        0.7186801038
 H         -5.1674319525        1.5033436556       -2.5634685843
 H         -5.5631824046       -0.6236626373       -3.7858607474
 H         -4.5002652070       -2.7050777284       -2.9705191330
 H         -3.1002196619       -2.6707759690       -0.9650493300
 H         -3.2456468583       -2.9565931712        1.5216652444
 H         -1.6859961324       -4.8553527321        1.8060326374
 H          0.7104588758       -4.5852625815        1.2485164562
 H          4.0190224479       -3.1002998379       -0.2798522473
 H          6.3567871596       -2.9125896560       -1.0847276159
 H          7.2721665843       -0.6862287812       -1.6462788539
 H          5.9119373252        1.3087566303       -1.3898586622
 H          4.8487551987        2.9259256755       -0.8487290468
 H          3.3888861623        4.8406621468       -0.5358541860
 H          0.9969546349        4.5224263650        0.0092098272
 H          0.0992702714        2.2324130782        0.2591666693
  55
  -91.0575874400000       4.629490871538902E-002 !
 C         -1.9386250698        3.2338316688        2.2731198267
 C         -1.3870820404        2.1052529305        2.8560039461
 C         -1.6060038499        0.8555357037        2.3066262831
 C         -2.3756570785        0.7126039090        1.1528034913
 C         -2.9600637895        1.8602444784        0.5915745805
 C         -2.7337895521        3.1086401815        1.1456988468
 O         -3.7810757921        1.7972935741       -0.4989514949
 C         -3.9456974132        0.5792124300       -1.0967456856
 C         -4.7231017787        0.5399889242       -2.2428126251
 C         -4.9121375096       -0.6547737051       -2.9160994537
 C         -4.3088976450       -1.8077084896       -2.4454913062
 C         -3.5343086469       -1.7764437773       -1.2998154396
 C         -3.3510861889       -0.5894749324       -0.5952350083
 N         -2.6055210072       -0.5300333750        0.5818656112
 C         -1.7254613688       -1.5980526841        0.8846611270
 C         -2.1947794227       -2.8284102300        1.3285648178
 C         -1.3193259887       -3.8897567164        1.4837201077
 C          0.0212410578       -3.7507754441        1.1611152703
 C          0.5258533631       -2.5300938930        0.7149539328
 N          1.7990687465       -2.3563458608        0.3632439407
 C          2.2769588285       -1.1635278099        0.0317573889
 C          3.6313912601       -1.0092990397       -0.4051147288
 C          4.4244678070       -2.1526925692       -0.5895231788
 C          5.7073613107       -2.0476026083       -1.0611583538
 C          6.2319034056       -0.7889821987       -1.3568319454
 C          5.4748871017        0.3422039245       -1.1666835284
 C          4.1604606518        0.2726684180       -0.6819860155
 C          3.3400470905        1.4416938629       -0.4663611289
 C          3.8336818563        2.7501667533       -0.5656947667
 C          3.0247401005        3.8416496714       -0.3565773047
 C          1.6746805006        3.6706457218       -0.0474313374
 C          1.1588044711        2.4057200818        0.0620042334
 C          1.9754484630        1.2786900161       -0.1277036645
 C          1.4288798913       -0.0241079190        0.0750217032
 N          0.1347416071       -0.1947805382        0.3395223990
 C         -0.3570120942       -1.3928266759        0.6290778253
 H         -1.7601720045        4.2099449752        2.6957285122
 H         -0.7789470687        2.1958356342        3.7423935443
 H         -1.1852032807       -0.0226528628        2.7694483587
 H         -3.1894067813        3.9667653338        0.6779226036
 H         -5.1614257143        1.4602542452       -2.5943617022
 H         -5.5183791805       -0.6785985717       -3.8077085039
 H         -4.4357900168       -2.7415414592       -2.9708991949
 H         -3.0579954073       -2.6783979981       -0.9511225886
 H         -3.2446933698       -2.9383652126        1.5539887399
 H         -1.6862074006       -4.8377239290        1.8456008232
 H          0.7064742559       -4.5766431805        1.2655831887
 H          3.9851726543       -3.1123505138       -0.3636767101
 H          6.3082009897       -2.9321297450       -1.2126043283
 H          7.2380542334       -0.7040137730       -1.7408973009
 H          5.9052778955        1.2997894798       -1.4143621537
 H          4.8750160479        2.9149178814       -0.7939117085
 H          3.4370356812        4.8375440345       -0.4288254628
 H          1.0428744732        4.5316201685        0.1135207884
 H          0.1223529332        2.2463147389        0.3164802734
  55
  -91.0570198000000       2.539007303593408E-002 !
 C         -2.5180578585        2.7089899426        3.2867291055
 C         -1.9917517445        1.4917272906        3.6844977424
 C         -2.0102137467        0.4080502564        2.8260198496
 C         -2.5564915725        0.5241512796        1.5510581215
 C         -3.0884056842        1.7616289598        1.1570195388
 C         -3.0655913325        2.8429267608        2.0219659375
 O         -3.6464595896        1.9533690683       -0.0767007657
 C         -3.5695657106        0.9202211253       -0.9695663406
 C         -4.0296411493        1.1530498341       -2.2548535277
 C         -3.9790463004        0.1457567209       -3.2036999024
 C         -3.4648634598       -1.0944171904       -2.8651284903
 C         -3.0019663815       -1.3336064447       -1.5841112403
 C         -3.0476011687       -0.3338906947       -0.6169222376
 N         -2.6147302968       -0.5603445445        0.6844153578
 C         -1.7386850335       -1.6545137990        0.9214522412
 C         -2.1863555975       -2.8652504752        1.4286640787
 C         -1.2886217975       -3.9004071902        1.6317998674
 C          0.0551278695       -3.7403610871        1.3315038958
 C          0.5366385202       -2.5370247698        0.8189353952
 N          1.8167063504       -2.3342119224        0.5131841243
 C          2.2523558639       -1.1777559647        0.0278960594
 C          3.6322976874       -0.9879845593       -0.2980086026
 C          4.5326635567       -2.0455694249       -0.0913403602
 C          5.8619067053       -1.9055582684       -0.3939073715
 C          6.3254980873       -0.6969064434       -0.9147533599
 C          5.4587954903        0.3488770759       -1.1225926073
 C          4.0922009825        0.2429062479       -0.8230996950
 C          3.1576605137        1.3250019605       -1.0276534136
 C          3.5325040332        2.5758766014       -1.5399605032
 C          2.6161598724        3.5839696367       -1.7207702079
 C          1.2735963656        3.3864329367       -1.3943774763
 C          0.8715386910        2.1771978117       -0.8914635958
 C          1.7940349627        1.1351213518       -0.7011299743
 C          1.3368741883       -0.1109309182       -0.1769375952
 N          0.0540873934       -0.2928097579        0.1239773358
 C         -0.3854645219       -1.4480356888        0.6054078247
 H         -2.5031090226        3.5550724923        3.9554031396
 H         -1.5634439390        1.3813538902        4.6686265702
 H         -1.5985123294       -0.5400170422        3.1350066553
 H         -3.4779958843        3.7797145608        1.6828824690
 H         -4.4177952757        2.1309391563       -2.4912916945
 H         -4.3378891498        0.3340560953       -4.2032448895
 H         -3.4199432144       -1.8825684827       -3.6006743292
 H         -2.5960607789       -2.2981470990       -1.3220039137
 H         -3.2338637465       -2.9829871624        1.6593950390
 H         -1.6372217048       -4.8411798227        2.0286758745
 H          0.7576847045       -4.5428376453        1.4904730788
 H          4.1420593988       -2.9671576933        0.3125944936
 H          6.5488395465       -2.7229652058       -0.2319065651
 H          7.3722459091       -0.5830442163       -1.1561280129
 H          5.8503844370        1.2688567476       -1.5268709072
 H          4.5613999775        2.7629819974       -1.8037067968
 H          2.9364888464        4.5357782803       -2.1188505679
 H          0.5590735796        4.1832995761       -1.5386101264
 H         -0.1595164875        1.9944952038       -0.6282790316
