  94
       -127.74251281
 C          0.7283717334       -5.7172360859       -2.3027293816
 C          0.0755461276       -4.5845165693       -1.5778298960
 C          0.8323819516       -3.5938291507       -0.9386015951
 C          0.2281427609       -2.5482352839       -0.2888645145
 C         -1.1756333048       -2.4375213690       -0.2540176946
 N         -1.7607151474       -1.3666901725        0.3936810767
 C         -3.0413665628       -0.9495333263        0.0907557398
 C         -3.5261220996       -0.9605766853       -1.2451969851
 C         -4.7785089392       -0.4912821219       -1.5300323948
 C         -5.6261000808        0.0026062601       -0.5232896120
 C         -6.9915882160        0.5045120623       -0.8639282953
 C         -5.1469563203        0.0102407114        0.7956757627
 C         -3.8892927141       -0.4384661485        1.1027079410
 C         -1.1277436108       -0.8369391590        1.5336194608
 C         -0.8151158888       -1.7791444210        2.5389268341
 C         -0.4871863164       -1.3961458653        3.8084230977
 C         -0.4580876175       -0.0277161979        4.1187569724
 C         -0.6482740465        0.9002918100        3.1089117368
 C         -0.9319435836        0.5558953132        1.7929966653
 C         -0.8743852131        1.6808501767        0.7533884227
 C          0.4124621075        2.4514615105        1.0714708870
 C          0.3483848036        3.6115240525        1.8581142500
 C          1.4579685244        4.2829314501        2.3217538572
 C          2.7303344031        3.8036056073        2.0381621018
 C          2.8345529255        2.6695368087        1.2598182981
 C          1.7172372058        2.0081498632        0.7580321793
 N          2.0213165632        0.8834551585       -0.0770351671
 C          2.1563619416        1.1168094064       -1.4534785385
 C          1.9116588288        0.0907390842       -2.3713903790
 C          2.0138567811        0.3248973481       -3.7275164996
 C          2.3544351769        1.5786365202       -4.2194738972
 C          2.4615132782        1.8405360931       -5.6904413392
 C          2.5829455762        2.6005139864       -3.3035158516
 C          2.4834249835        2.3807898241       -1.9450283004
 C          2.6514757937       -0.1945123188        0.5318906006
 C          2.3720959263       -0.4849913535        1.8723909307
 C          2.9490721923       -1.5715225438        2.4918181907
 C          3.8361798288       -2.4029587664        1.8155655527
 C          4.4286245731       -3.6036836894        2.4861892231
 C          4.1472394971       -2.0867921217        0.4985969810
 C          3.5773725952       -1.0025237140       -0.1365980518
 C         -0.8991680821        1.2068197229       -0.7042178722
 C         -0.8374482952        2.3942070533       -1.6601567693
 C         -2.1081186327        3.2218861095       -1.5050824721
 C         -2.2220573137        3.7064660098       -0.0644401279
 C         -2.1565627917        2.5352719218        0.9146712331
 C         -1.9420324612       -3.4506609303       -0.8705714828
 C         -1.3204716451       -4.4894201373       -1.5154356978
 H          1.7872046667       -5.7738638730       -2.0622406049
 H          0.6291888748       -5.5863830440       -3.3818358022
 H          0.2566933649       -6.6641903728       -2.0429591121
 H          1.9114893949       -3.6516668963       -0.9570564261
 H          0.8199744829       -1.7947359980        0.2061642105
 H         -2.8741143337       -1.3022642666       -2.0357121623
 H         -5.1276234560       -0.4893980313       -2.5530852189
 H         -7.5843395428       -0.2819973958       -1.3331325941
 H         -6.9312213904        1.3330685058       -1.5712285519
 H         -7.5134112277        0.8473684283        0.0260537851
 H         -5.7867724622        0.3773554106        1.5854313498
 H         -3.5404944618       -0.4440430328        2.1245389340
 H         -0.9097395838       -2.8271233944        2.2897609188
 H         -0.2807894513       -2.1339178182        4.5685856575
 H         -0.2502208257        0.3007209079        5.1248459494
 H         -0.5328291376        1.9439572199        3.3596080983
 H         -0.6122102233        4.0112217660        2.1373676618
 H          1.3326985258        5.1750897214        2.9177913757
 H          3.6123093090        4.3026254566        2.4079637963
 H          3.8099303534        2.2721920269        1.0112146912
 H          1.6225718426       -0.8886844884       -2.0183589401
 H          1.8156566313       -0.4839592467       -4.4165996875
 H          2.3589602763        0.9195822992       -6.2588669393
 H          1.6813765502        2.5319982293       -6.0090810401
 H          3.4227755026        2.2938996262       -5.9288366926
 H          2.8479502574        3.5848964664       -3.6623211239
 H          2.6726804785        3.1906597900       -1.2563369113
 H          1.6884576926        0.1437199990        2.4189464885
 H          2.7007863099       -1.7792114019        3.5222946321
 H          5.3590952067       -3.8987182992        2.0065775292
 H          3.7352068977       -4.4439381663        2.4273708551
 H          4.6208534296       -3.4031742064        3.5379833692
 H          4.8611231036       -2.6942992512       -0.0404387441
 H          3.8669487484       -0.7678169282       -1.1495825112
 H         -0.1025678127        0.4973481607       -0.9022818141
 H         -1.8449968999        0.7090547257       -0.9013479344
 H          0.0308278577        3.0188033223       -1.4452005245
 H         -0.7416427694        2.0312080634       -2.6860276971
 H         -2.0919723394        4.0761317277       -2.1854880330
 H         -2.9760810071        2.6064095180       -1.7566030273
 H         -1.4118555685        4.4110418757        0.1294721645
 H         -3.1679474103        4.2351877776        0.0784502005
 H         -2.2687366027        2.8877517411        1.9406506935
 H         -3.0050514155        1.8745211598        0.7207345491
 H         -3.0183004584       -3.4221912970       -0.7907997727
 H         -1.9188452447       -5.2645269927       -1.9731517719
