  94
  -127.046631877000       0.891009895285153      !
 C         -1.8297778423       -5.8674620622       -2.3622019231
 C         -1.9688765311       -4.5268516297       -1.7129481684
 C         -0.8829811986       -3.8959434648       -1.0990678378
 C         -1.0196338853       -2.6608730281       -0.5129860026
 C         -2.2546432228       -1.9990146351       -0.5164318205
 N         -2.3559046183       -0.7444188204        0.0552458706
 C         -3.4329240404        0.0790149672       -0.2470498691
 C         -3.8441215116        0.2627886596       -1.5899325358
 C         -4.8772397065        1.1192704653       -1.8839116114
 C         -5.5575703679        1.8121134970       -0.8824913202
 C         -6.6863756323        2.7402571004       -1.1983233244
 C         -5.1537718140        1.6170970643        0.4516576972
 C         -4.1132019875        0.7825318171        0.7651597267
 C         -1.5546078370       -0.4179820658        1.1780121503
 C         -1.7045072415       -1.2857327754        2.2820463637
 C         -1.2533052943       -0.9474467982        3.5284289831
 C         -0.6173905502        0.2808368319        3.7093960409
 C         -0.3623620172        1.0828944261        2.6028108307
 C         -0.7599998490        0.7534131654        1.3187133152
 C         -0.3198158188        1.6812206489        0.1811142966
 C          1.0043398348        2.3670772087        0.5421141479
 C          0.9939421994        3.6946729317        0.9909721402
 C          2.1366057161        4.4326552474        1.2205667847
 C          3.3838200262        3.8658141539        1.0033999471
 C          3.4372270997        2.5411799740        0.6215965826
 C          2.2849698008        1.7815104721        0.4191590095
 N          2.5218939175        0.4045424495        0.1498037667
 C          3.4281712601        0.0793015860       -0.8539530731
 C          4.3197771789       -1.0001941386       -0.7272619284
 C          5.1883211608       -1.3127262698       -1.7519606657
 C          5.2241399551       -0.5725881145       -2.9267667127
 C          6.1568155713       -0.9160954161       -4.0455618353
 C          4.3627031245        0.5238379193       -3.0352617189
 C          3.4890313397        0.8461559864       -2.0236406431
 C          2.2503538114       -0.5134406065        1.1678033505
 C          2.2947094022       -0.1350647375        2.5062605354
 C          2.0481268885       -1.0569750334        3.5029067369
 C          1.7464792941       -2.3869963717        3.1935421952
 C          1.4898943304       -3.3830702408        4.2809967221
 C          1.7269643409       -2.7651750228        1.8588591994
 C          1.9795825925       -1.8545657632        0.8508995918
 C         -0.1581691489        0.9469091813       -1.1633686290
 C          0.0810115806        1.9244518926       -2.3119242618
 C         -1.1034560265        2.8687090068       -2.4708897668
 C         -1.2726243793        3.6611745885       -1.1813826376
 C         -1.4709416149        2.7022347000       -0.0110826162
 C         -3.3596228063       -2.6427587103       -1.1069982475
 C         -3.2045221213       -3.8763232590       -1.6926319977
 H         -0.8074991979       -6.2305192230       -2.2919209392
 H         -2.1079612789       -5.8125619703       -3.4149279889
 H         -2.4897978227       -6.5928764243       -1.8857900676
 H          0.0807326073       -4.3849367250       -1.0914754659
 H         -0.1840163869       -2.1727053024       -0.0388199119
 H         -3.3148258070       -0.2518445473       -2.3786696520
 H         -5.1664860370        1.2632042923       -2.9158177275
 H         -7.6077322990        2.3964412283       -0.7265287208
 H         -6.8506094687        2.8037143157       -2.2710594789
 H         -6.4779528688        3.7407424010       -0.8180627959
 H         -5.6815292354        2.1342618629        1.2394324932
 H         -3.8110933424        0.6367060282        1.7917845875
 H         -2.2517505088       -2.2052174300        2.1257480597
 H         -1.4118839613       -1.6122194021        4.3640218867
 H         -0.3088339039        0.6018668995        4.6913676000
 H          0.1903788690        1.9977858999        2.7551183007
 H          0.0532923075        4.1836256365        1.1785767610
 H          2.0532724610        5.4539396061        1.5617124285
 H          4.2901638525        4.4296960104        1.1592160734
 H          4.3938966062        2.0522605447        0.4992216775
 H          4.3456486658       -1.5699461764        0.1888386922
 H          5.8664290860       -2.1454662055       -1.6273251708
 H          6.8269239594       -1.7234143917       -3.7609067708
 H          5.5935840490       -1.2288736745       -4.9253426544
 H          6.7529288106       -0.0489208392       -4.3275297821
 H          4.3872278730        1.1297127808       -3.9295128159
 H          2.8447791081        1.7035783775       -2.1259489661
 H          2.5479496454        0.8828994965        2.7615623184
 H          2.1052042347       -0.7519435716        4.5366755041
 H          2.4271986549       -3.8399530544        4.6039241633
 H          0.8318188818       -4.1757516987        3.9322954329
 H          1.0381712286       -2.9014354852        5.1451783922
 H          1.5024155752       -3.7903756049        1.5996725976
 H          1.9805137777       -2.1644956528       -0.1837920901
 H          0.6574296763        0.2274614205       -1.1098051924
 H         -1.0672539751        0.3943095893       -1.3875052319
 H          0.9703917904        2.5262042696       -2.1144782416
 H          0.2477277379        1.3617534264       -3.2335169352
 H         -0.9356463853        3.5455381177       -3.3116643379
 H         -2.0120164042        2.2963383237       -2.6724313920
 H         -0.3919255338        4.2880802582       -1.0322094017
 H         -2.1449798332        4.3156097243       -1.2519701126
 H         -1.6550973523        3.2459000632        0.9168429154
 H         -2.3744216427        2.1326360495       -0.2149505032
 H         -4.3327533153       -2.1773848793       -1.0683111227
 H         -4.0609961890       -4.3624433354       -2.1381591490
  94
  -127.043672067500       3.887301812743712E-002 !
 C         -0.9231465378       -5.9925570627       -1.2303631105
 C         -1.2572562543       -4.5804840086       -0.8698781536
 C         -0.3270146002       -3.7576653174       -0.2191754846
 C         -0.6388906020       -2.4660113438        0.1187864346
 C         -1.9028443722       -1.9272588447       -0.1851944172
 N         -2.1803637649       -0.6145875301        0.1426924881
 C         -3.1683917008        0.1023235655       -0.5026461933
 C         -3.4083927838       -0.0570400587       -1.8951032617
 C         -4.3725990805        0.6906784862       -2.5198440241
 C         -5.1489240322        1.6202663933       -1.8198146540
 C         -6.2100872841        2.4272597893       -2.4944982241
 C         -4.9036196129        1.7827518708       -0.4419543415
 C         -3.9372226819        1.0574351057        0.1999534400
 C         -1.6060052134       -0.0683361360        1.3068885234
 C         -1.8449187185       -0.7982984101        2.4925304035
 C         -1.6481947927       -0.2472352321        3.7271214144
 C         -1.1920995705        1.0766715427        3.8158179856
 C         -0.8387521406        1.7509988609        2.6586467389
 C         -0.9728164188        1.2105993967        1.3861512981
 C         -0.3197279975        1.9747376822        0.2284961310
 C          1.0673473615        2.3719506024        0.7479399439
 C          1.2600615858        3.6488108455        1.2965695507
 C          2.4148395874        4.0398836567        1.9373946351
 C          3.4615222612        3.1403415501        2.0963136080
 C          3.3159523689        1.8792107561        1.5571784827
 C          2.1680881561        1.4932341889        0.8708683114
 N          2.2297983968        0.1746918736        0.3119018862
 C          2.7300179669        0.0537333998       -0.9927294809
 C          2.3292040567       -1.0076927032       -1.8110523758
 C          2.7999576691       -1.1120580351       -3.1040080461
 C          3.6737082786       -0.1701717071       -3.6326275769
 C          4.2012192818       -0.2880967725       -5.0294642895
 C          4.0553670215        0.8945356929       -2.8218700930
 C          3.5917199147        1.0120845524       -1.5280340772
 C          2.2546078158       -0.8925726338        1.1974491472
 C          1.6160485152       -0.7732006755        2.4375811393
 C          1.5575021393       -1.8420214910        3.3049645905
 C          2.1432005810       -3.0629787431        2.9887061279
 C          2.0205350603       -4.2415941701        3.9039325429
 C          2.8360653263       -3.1586747151        1.7868279510
 C          2.9043454587       -2.0983481513        0.9076198168
 C         -0.2272757967        1.1840445277       -1.0820869972
 C          0.4301312547        2.0227698955       -2.1741689898
 C         -0.4676523641        3.2110259859       -2.4992857077
 C         -0.6749957979        4.0465302524       -1.2414534213
 C         -1.2222334698        3.1895466216       -0.1011604781
 C         -2.8557518440       -2.7649007551       -0.8063728593
 C         -2.5259251409       -4.0551338015       -1.1381055463
 H         -1.3577838848       -6.6822724566       -0.5041492513
 H          0.1533850893       -6.1463151693       -1.2389498867
 H         -1.3253490123       -6.2485805179       -2.2093228104
 H          0.6538122796       -4.1443989113        0.0180338607
 H          0.0820596983       -1.8417288031        0.6217249686
 H         -2.7940500437       -0.7428430328       -2.4593489024
 H         -4.5324348116        0.5658679532       -3.5818153941
 H         -6.2762230058        2.1800212878       -3.5513031155
 H         -6.0009258165        3.4938016931       -2.3985759006
 H         -7.1814643804        2.2428738366       -2.0330483179
 H         -5.4985209620        2.4922925628        0.1146369075
 H         -3.7745763859        1.1764684006        1.2608168990
 H         -2.2582967026       -1.7925969393        2.3936626574
 H         -1.8670867410       -0.8108658722        4.6211962520
 H         -1.0772906660        1.5526293603        4.7768202228
 H         -0.4049906075        2.7339693692        2.7636920675
 H          0.4691944567        4.3777295759        1.2349952721
 H          2.4955055413        5.0434375933        2.3287930133
 H          4.3646328548        3.4179056372        2.6168878778
 H          4.1154823503        1.1557815432        1.6493940926
 H          1.6304332087       -1.7417623968       -1.4365849111
 H          2.4722273716       -1.9397550413       -3.7171093432
 H          3.6741118409       -1.0624202418       -5.5812096102
 H          4.0946761687        0.6564654827       -5.5605080857
 H          5.2619586216       -0.5403780310       -5.0116582294
 H          4.7309307182        1.6426340414       -3.2115436572
 H          3.9078119877        1.8471777382       -0.9210480966
 H          1.1501320996        0.1607017386        2.7057682537
 H          1.0373841167       -1.7243161819        4.2441446658
 H          1.1517933434       -4.8393346512        3.6230234487
 H          1.8878721149       -3.9207989916        4.9345113251
 H          2.9005990825       -4.8783381443        3.8407173124
 H          3.3409858199       -4.0815735054        1.5366321382
 H          3.4757766235       -2.1985113916       -0.0025182934
 H          0.2958315054        0.2441764560       -0.9387494532
 H         -1.2304587325        0.9567574666       -1.4340850874
 H          1.4061885945        2.3844724270       -1.8470164279
 H          0.5840004640        1.4071902205       -3.0634108214
 H         -0.0187683779        3.8235648495       -3.2842702836
 H         -1.4326755405        2.8491537137       -2.8641034751
 H          0.2803217590        4.4914079774       -0.9586970690
 H         -1.3771446533        4.8594291184       -1.4436023535
 H         -1.4010040742        3.7992057566        0.7853512836
 H         -2.1941148784        2.7915530630       -0.4031884614
 H         -3.8546601425       -2.3940956154       -0.9793613005
 H         -3.2668274774       -4.6884246155       -1.6056244322
  94
  -127.043566244800       3.475485773967046E-002 !
 C         -5.8267536841       -4.7452466530       -2.8609986707
 C         -4.9561420629       -3.7650021227       -2.1438968000
 C         -3.5564821163       -3.8078757675       -2.3093555520
 C         -2.7381564430       -2.9211662724       -1.6641566619
 C         -3.2727238027       -1.9242993831       -0.8238693363
 N         -2.4388730199       -1.0235093717       -0.1897978309
 C         -2.9129718093        0.1755670186        0.3083663470
 C         -3.8977601284        0.9086761978       -0.3966869620
 C         -4.4104869743        2.0675606423        0.1374061215
 C         -3.9737538539        2.5582346564        1.3647080963
 C         -4.5364769438        3.8120364115        1.9534615989
 C         -2.9736445885        1.8434619754        2.0466382213
 C         -2.4581995377        0.6803051126        1.5341869415
 C         -1.1649646331       -1.5333546837        0.1993069890
 C         -1.2294725651       -2.5499387970        1.1494732355
 C         -0.1045598365       -3.2145772377        1.5875256396
 C          1.1177123262       -2.8783807172        1.0121846450
 C          1.1841186075       -1.8862101969        0.0585837432
 C          0.0737940282       -1.1523910193       -0.3769727399
 C          0.2618997236       -0.0124861683       -1.3880565110
 C          0.2367112093        1.2769167154       -0.5619122190
 C         -0.8294834782        2.1702125565       -0.6945987533
 C         -0.9733543652        3.3097617583        0.0693569610
 C         -0.0510168712        3.5994529985        1.0665879119
 C          1.0042061103        2.7318060654        1.2438354700
 C          1.1812598370        1.6054404207        0.4414852941
 N          2.3763374473        0.8720111352        0.7283632933
 C          2.4744861517        0.2811064768        1.9773076219
 C          1.3156440486       -0.1829566375        2.6141246907
 C          1.3834220668       -0.8150443249        3.8321764167
 C          2.6055580331       -1.0069756820        4.4793553169
 C          2.6713643614       -1.7401308099        5.7823286002
 C          3.7499751582       -0.4993626302        3.8726021189
 C          3.6966084357        0.1417932574        2.6537709130
 C          3.5004206309        1.1315546696       -0.0533137744
 C          4.5186434268        0.1696151813       -0.1992204236
 C          5.5953100311        0.4141454420       -1.0231232762
 C          5.7125061803        1.6063603380       -1.7301032944
 C          6.8781005028        1.8756557761       -2.6294647695
 C          4.7007545402        2.5602342923       -1.5818202099
 C          3.6161020369        2.3304807497       -0.7677456991
 C          1.5847885047       -0.1801519175       -2.1681861305
 C          1.7640467274        0.8693213341       -3.2595015465
 C          0.6874437953        0.7131533816       -4.3212532738
 C         -0.6669003731        0.8760926773       -3.6492881710
 C         -0.8323898316       -0.0959337319       -2.4792517813
 C         -4.6778256109       -1.9074212531       -0.6223418638
 C         -5.4816610573       -2.8089448638       -1.2771995141
 H         -5.6446837392       -4.7038361882       -3.9353432458
 H         -6.8787361196       -4.5409855472       -2.6776540577
 H         -5.6087633596       -5.7625649514       -2.5321302636
 H         -3.1290363671       -4.5570203700       -2.9596398332
 H         -1.6684250989       -2.9738522724       -1.7989861748
 H         -4.2203407778        0.5641323779       -1.3681586422
 H         -5.1609881845        2.6154322956       -0.4156901820
 H         -5.1728175960        4.3287010464        1.2389494195
 H         -3.7355331715        4.4829861364        2.2622939440
 H         -5.1316000791        3.5825122924        2.8388429074
 H         -2.6164163213        2.2135002737        2.9961644278
 H         -1.7185936030        0.1226730960        2.0881829049
 H         -2.2024769442       -2.8059079978        1.5470245241
 H         -0.1752626702       -3.9813086833        2.3424457726
 H          2.0172753389       -3.3977917304        1.3064067840
 H          2.1519487139       -1.6848782693       -0.3654353780
 H         -1.5999725533        1.9781600372       -1.4193041253
 H         -1.8110166770        3.9665228985       -0.1088006378
 H         -0.1513689957        4.4780808786        1.6847071770
 H          1.7445956457        2.9258027775        2.0086087255
 H          0.3659113493       -0.0452336235        2.1252218162
 H          0.4757774428       -1.1768114254        4.2932617072
 H          3.6123181184       -1.5479355908        6.2923536607
 H          1.8495423710       -1.4463576322        6.4329176302
 H          2.5902407382       -2.8147371557        5.6111349348
 H          4.7034333186       -0.5971013741        4.3728327426
 H          4.5965895712        0.5635567711        2.2329667611
 H          4.4308310336       -0.7787111418        0.3099646105
 H          6.3587327960       -0.3437882939       -1.1297472715
 H          6.5352257367        2.1826055559       -3.6170932787
 H          7.5021585309        0.9917809616       -2.7352538845
 H          7.4902812738        2.6838523737       -2.2275211827
 H          4.7744696565        3.4954436412       -2.1177324882
 H          2.8479746293        3.0823383817       -0.6660078901
 H          2.4455184268       -0.1200306429       -1.5151825044
 H          1.5821232843       -1.1708487257       -2.6314198299
 H          1.7064545913        1.8673411550       -2.8198595489
 H          2.7576843031        0.7563016955       -3.6995821605
 H          0.8106844785        1.4580577170       -5.1102061342
 H          0.7633794215       -0.2768456034       -4.7779175584
 H         -0.7575228080        1.9080752012       -3.3088405296
 H         -1.4708432865        0.6896749713       -4.3664501643
 H         -1.8249470497        0.0383110881       -2.0607405467
 H         -0.7906386317       -1.1107916324       -2.8840510195
 H         -5.1031704495       -1.2124306988        0.0849123926
 H         -6.5481949843       -2.7871406845       -1.1002403477
  94
  -127.042971753300       1.852704422633719E-002 !
 C         -0.9254846479       -6.0152127639       -1.2167867606
 C         -1.2587941929       -4.6053154472       -0.8482649256
 C         -0.3366656043       -3.7871868415       -0.1825177534
 C         -0.6421075537       -2.4894700996        0.1386773294
 C         -1.8935588022       -1.9396048311       -0.2012889534
 N         -2.1721108820       -0.6250163977        0.1193040938
 C         -3.1372269933        0.0955493400       -0.5553717923
 C         -3.3285756199       -0.0549921939       -1.9555869611
 C         -4.2527622312        0.7088525588       -2.6130530782
 C         -5.0454231709        1.6511119715       -1.9350388145
 C         -6.0507814997        2.4683297022       -2.6792913291
 C         -4.8571648410        1.7965459005       -0.5520296094
 C         -3.9250838580        1.0549279863        0.1251352609
 C         -1.6231581627       -0.0844765583        1.2971055270
 C         -1.8648834884       -0.8332042181        2.4706069209
 C         -1.6719909099       -0.3043354555        3.7151697946
 C         -1.2182238483        1.0189761399        3.8278440057
 C         -0.8686708863        1.7152194346        2.6831977103
 C         -0.9984525531        1.1979967129        1.4000970892
 C         -0.3465289629        1.9920826708        0.2625361753
 C          1.0437268014        2.3704866008        0.7869345773
 C          1.2468820376        3.6346488382        1.3607643169
 C          2.4118089114        4.0087756475        1.9931408833
 C          3.4596382155        3.1050497112        2.1132477446
 C          3.3008562681        1.8541434906        1.5539494902
 C          2.1397300593        1.4833545565        0.8817010899
 N          2.1779804174        0.1660668739        0.3177596222
 C          2.6482807933        0.0382698923       -0.9974488410
 C          2.2354646244       -1.0340194662       -1.7943430679
 C          2.6721092042       -1.1463346844       -3.0985974034
 C          3.5237777846       -0.2021327607       -3.6580801940
 C          3.9967597811       -0.3154650262       -5.0748533410
 C          3.9206646378        0.8709293178       -2.8665953230
 C          3.4911495440        0.9962603603       -1.5614208532
 C          2.2544108648       -0.8943415145        1.2119618169
 C          1.6386507176       -0.7819621135        2.4639932168
 C          1.6613727443       -1.8313195931        3.3558869095
 C          2.3068135685       -3.0255865661        3.0514262042
 C          2.2932666516       -4.1741163488        4.0122399438
 C          2.9561787209       -3.1190088714        1.8263862640
 C          2.9421772665       -2.0774197998        0.9215353588
 C         -0.2584315421        1.2429376423       -1.0719883630
 C          0.4034657203        2.1117158426       -2.1371801918
 C         -0.4943072333        3.3087027523       -2.4286074150
 C         -0.7023016815        4.1073596110       -1.1471490277
 C         -1.2465084513        3.2187464999       -0.0296294923
 C         -2.8367651632       -2.7705236681       -0.8446346289
 C         -2.5139811664       -4.0662870974       -1.1577097327
 H         -0.0231118863       -6.3467623758       -0.7088822493
 H         -0.7628828011       -6.0992778780       -2.2928555878
 H         -1.7434899474       -6.6856280792       -0.9558382355
 H          0.6334475655       -4.1828554185        0.0829732534
 H          0.0723680004       -1.8703571252        0.6576216492
 H         -2.7021445798       -0.7480087594       -2.4978885077
 H         -4.3753965429        0.5961986868       -3.6811314963
 H         -6.7827858731        1.8246502064       -3.1691384901
 H         -5.5653731621        3.0603352638       -3.4566791008
 H         -6.5767686031        3.1433869158       -2.0088040643
 H         -5.4632556679        2.5090722803       -0.0109086869
 H         -3.8038178827        1.1640012379        1.1924812637
 H         -2.2763597022       -1.8264767029        2.3548730799
 H         -1.8912167667       -0.8844862419        4.5984134340
 H         -1.1040849904        1.4774289821        4.7974252957
 H         -0.4399751018        2.6983154158        2.8063069974
 H          0.4567691162        4.3661360149        1.3271247904
 H          2.5002460059        5.0028523426        2.4065294191
 H          4.3730347372        3.3706790432        2.6219732995
 H          4.0994547874        1.1269029257        1.6203522145
 H          1.5550710953       -1.7712599194       -1.3930773496
 H          2.3352224878       -1.9824153892       -3.6951242891
 H          3.6843838004       -1.2587126294       -5.5158588707
 H          3.5900594359        0.4982859782       -5.6754102419
 H          5.0830059726       -0.2499242670       -5.1214314705
 H          4.5818981126        1.6190363370       -3.2802180390
 H          3.8202893303        1.8359949834       -0.9676906138
 H          1.1321044138        0.1328317631        2.7246178174
 H          1.1629103393       -1.7200012761        4.3076251616
 H          3.1314378719       -4.8432761742        3.8318444575
 H          1.3714164686       -4.7461357796        3.8969088126
 H          2.3388495997       -3.8189798027        5.0394824372
 H          3.4964920591       -4.0220419300        1.5776956517
 H          3.4846666559       -2.1728848229       -0.0067269051
 H          0.2559462208        0.2943498541       -0.9590816006
 H         -1.2628848149        1.0362532170       -1.4319572193
 H          1.3786611532        2.4638069451       -1.7976866172
 H          0.5586202879        1.5218287136       -3.0434463564
 H         -0.0453697724        3.9441891571       -3.1951321646
 H         -1.4589654335        2.9569417715       -2.8042821106
 H          0.2522425774        4.5469549366       -0.8537939469
 H         -1.4069485906        4.9236361823       -1.3255803060
 H         -1.4203978387        3.8040664949        0.8740418110
 H         -2.2204876019        2.8316426765       -0.3389047674
 H         -3.8264750993       -2.3894697147       -1.0466221897
 H         -3.2492754530       -4.6951544843       -1.6395953294
  94
  -127.042881259100       1.683518462140213E-002 !
 C         -5.9727761264       -4.7092760612       -2.7127145259
 C         -5.0579269003       -3.7363291820       -2.0414883949
 C         -3.6658026971       -3.8225345585       -2.2357549992
 C         -2.8087735382       -2.9399288233       -1.6338776373
 C         -3.2973123528       -1.9080692354       -0.8106680435
 N         -2.4237879611       -1.0165411502       -0.2148521186
 C         -2.8664995913        0.1989033634        0.2808546865
 C         -3.8187801845        0.9616315104       -0.4322507715
 C         -4.2928951441        2.1412701255        0.0918455186
 C         -3.8479736140        2.6215146627        1.3209225650
 C         -4.3645818734        3.9018120164        1.8956294755
 C         -2.8914360189        1.8679369744        2.0188897655
 C         -2.4143562116        0.6846838225        1.5146809537
 C         -1.1560643552       -1.5452882022        0.1673940087
 C         -1.2259320519       -2.5543107898        1.1263132429
 C         -0.1051136026       -3.2163389957        1.5764840404
 C          1.1231722843       -2.8817412635        1.0118245600
 C          1.1953205993       -1.9016183739        0.0461114169
 C          0.0878412031       -1.1775652939       -0.4092233792
 C          0.2809876791       -0.0628929452       -1.4464870353
 C          0.2436574174        1.2469403987       -0.6555103837
 C         -0.8133083165        2.1441249599       -0.8396754499
 C         -0.9696041029        3.3024188591       -0.1093850505
 C         -0.0742292245        3.6099184695        0.9067595390
 C          0.9700228345        2.7394553073        1.1349416070
 C          1.1627952315        1.5938228306        0.3657142952
 N          2.3399522073        0.8579060572        0.7099702306
 C          2.4099941166        0.3479207081        1.9972865941
 C          1.2474486552       -0.1307458431        2.6167104068
 C          1.2904123289       -0.6714666137        3.8794543364
 C          2.4883805096       -0.7513490996        4.5899421648
 C          2.5487565596       -1.3482369683        5.9608723733
 C          3.6379644341       -0.2341493565        3.9914975101
 C          3.6101711120        0.3105470372        2.7292604066
 C          3.4898692240        1.0493995361       -0.0485674308
 C          4.5061826902        0.0727744574       -0.0717408062
 C          5.6305705782        0.2574738122       -0.8413745729
 C          5.8015085456        1.4043954935       -1.6155192734
 C          7.0191114714        1.5865526537       -2.4661538501
 C          4.7876309485        2.3665897723       -1.5974666220
 C          3.6551562951        2.1981062248       -0.8355736427
 C          1.6118274530       -0.2411820966       -2.2111490758
 C          1.7877406074        0.7761010480       -3.3330792979
 C          0.7244024706        0.5702183914       -4.3997203062
 C         -0.6390891705        0.7400494662       -3.7480795544
 C         -0.8054565351       -0.1873680416       -2.5421073316
 C         -4.6947903976       -1.8419474850       -0.5852917769
 C         -5.5382349897       -2.7389123083       -1.1963732365
 H         -7.0095033291       -4.5165615603       -2.4481483528
 H         -5.7235809550       -5.7311189523       -2.4243166756
 H         -5.8725230300       -4.6421088339       -3.7967572898
 H         -3.2727613026       -4.6016789076       -2.8723829674
 H         -1.7440026717       -3.0263446879       -1.7892199780
 H         -4.1505395734        0.6218735661       -1.4025467148
 H         -5.0165199510        2.7148524010       -0.4708707725
 H         -3.5417614121        4.5155444869        2.2613732567
 H         -5.0260138971        3.7000097374        2.7405844343
 H         -4.9233978357        4.4666917562        1.1527031783
 H         -2.5358364191        2.2223804763        2.9750835398
 H         -1.7122577753        0.0960061635        2.0843056226
 H         -2.2009818623       -2.8039163648        1.5230845687
 H         -0.1811567299       -3.9774997877        2.3365175257
 H          2.0209713307       -3.3953536602        1.3209562915
 H          2.1661530732       -1.7034628570       -0.3725614164
 H         -1.5637927141        1.9376798238       -1.5809073761
 H         -1.7973911019        3.9601905272       -0.3259781446
 H         -0.1847904563        4.5044543836        1.4994999404
 H          1.6900063898        2.9493856023        1.9146590614
 H          0.3181693728       -0.0779918010        2.0761411013
 H          0.3803482331       -1.0462416644        4.3255129127
 H          1.5782587378       -1.7375314696        6.2578738921
 H          3.2749840535       -2.1602675512        5.9925945541
 H          2.8601066734       -0.5997815500        6.6901941392
 H          4.5696308990       -0.2501039543        4.5396762133
 H          4.5074076986        0.7413999833        2.3111141105
 H          4.3787518180       -0.8361263058        0.4975314544
 H          6.3950086856       -0.5067126910       -0.8520921465
 H          7.8735484488        1.0660959484       -2.0385377152
 H          7.2637528170        2.6415870118       -2.5715907859
 H          6.8453875052        1.1822140098       -3.4653808508
 H          4.9006413340        3.2642821819       -2.1880454162
 H          2.8894686463        2.9592271455       -0.8236170347
 H          2.4664635465       -0.1499345029       -1.5528558517
 H          1.6238953967       -1.2455933454       -2.6437120548
 H          1.7107932649        1.7866985108       -2.9264628454
 H          2.7872826633        0.6638292250       -3.7598010905
 H          0.8469897164        1.2892007538       -5.2125387298
 H          0.8174103205       -0.4337319953       -4.8213742157
 H         -0.7464825050        1.7837764673       -3.4513275184
 H         -1.4327077142        0.5148240716       -4.4657230128
 H         -1.8008195294       -0.0428499615       -2.1326450218
 H         -0.7568806647       -1.2165532993       -2.9086718943
 H         -5.0872733136       -1.1110805845        0.1046462906
 H         -6.6001432770       -2.6771051067       -1.0023043389
