  55
        -89.00025356
 N         -1.5407984736       -6.0016953467        0.0198300365
 C         -1.8640840488       -4.8916368764        0.0188385722
 C         -2.2397813967       -3.5531310661        0.0199938249
 C         -3.6147331685       -3.1920886911        0.0209728607
 C         -4.0044664917       -1.8866702040        0.0167641376
 C         -3.0191730914       -0.8657938733        0.0104084825
 C         -1.6345008848       -1.2437128530        0.0120789322
 C         -1.2411331083       -2.5400689289        0.0165452351
 C         -0.7529520480       -0.0010081227        0.0018196134
 C         -1.8024645257        1.1015347857       -0.0074809766
 C         -1.5987092031        2.4408966203       -0.0178574626
 C         -2.7320645542        3.3007183088       -0.0216647987
 C         -2.5519487224        4.6793226858       -0.0299305921
 N         -2.3931584262        5.8245800162       -0.0375413755
 C         -4.0413115199        2.7471488465       -0.0157532852
 C         -4.2405998866        1.3993963819       -0.0058229453
 C         -3.1193748236        0.5300330016       -0.0007172714
 C          0.0730468870        0.0644416944        1.2527638004
 C         -0.5678083157        0.0727259388        2.4835232245
 C          0.1497628973        0.1242986070        3.6631294267
 C          1.5377189729        0.1663178739        3.6199765484
 C          2.1951106412        0.1582354409        2.4102063474
 C          1.4751102723        0.1087465122        1.2082032013
 N          2.1397773994        0.1056361482        0.0003759582
 C          3.5666511728        0.1359153943       -0.0002052314
 C          4.2795799443       -1.0556894973        0.0100748200
 C          5.6631771207       -1.0229032654        0.0089887462
 C          6.3303094699        0.1911201572       -0.0022462144
 C          5.6151752618        1.3775866360       -0.0123929292
 C          4.2314202701        1.3551711068       -0.0114854422
 C          1.4749084685        0.0804585362       -1.2070989792
 C          2.1947192635        0.0994261316       -2.4100635310
 C          1.5371704774        0.0760076759       -3.6195324105
 C          0.1491971455        0.0335747060       -3.6614567941
 C         -0.5682411329        0.0138839126       -2.4808417949
 C          0.0728175781        0.0367899923       -1.2503716791
 H         -4.3474956215       -3.9860073313        0.0243150500
 H         -5.0503844844       -1.6203962016        0.0169016720
 H         -0.1987368191       -2.8252789271        0.0165138145
 H         -0.6077326497        2.8718842013       -0.0225312494
 H         -4.8800439518        3.4281935691       -0.0191314436
 H         -5.2377683112        0.9864849061       -0.0014330599
 H         -1.6465432083        0.0379034109        2.5057471694
 H         -0.3660660941        0.1311974914        4.6102793913
 H          2.1078044540        0.2057033958        4.5352232416
 H          3.2733976949        0.1912694575        2.3842743739
 H          3.7469590179       -1.9952807905        0.0188643469
 H          6.2183565091       -1.9483745338        0.0170378189
 H          7.4092451651        0.2126447167       -0.0031058218
 H          6.1330375707        2.3244297686       -0.0216262247
 H          3.6615306563        2.2726717684       -0.0201540663
 H          3.2730011762        0.1326415292       -2.3851418652
 H          2.1072393263        0.0907026540       -4.5355611144
 H         -0.3667036811        0.0148781187       -4.6083959053
 H         -1.6469824617       -0.0210945235       -2.5019382259
