55
 energy: -89.043544709308 gnorm: 0.000102850372 xtb: 6.7.1 (edcfbbe)
N           -1.56072229409519       -6.01220002440374        0.05014304530774
C           -1.87590702706936       -4.89817609734479        0.04144626484936
C           -2.24656219628817       -3.55910363743283        0.03111510638777
C           -3.61927416934719       -3.19442077847480        0.03021935306959
C           -4.00536413745950       -1.88636671699402        0.02027679112623
C           -3.01993998863148       -0.86935530193349        0.01048643690224
C           -1.63906741453719       -1.24867647397111        0.01195347216628
C           -1.24733700851603       -2.54708085599601        0.02140643497443
C           -0.75323260570664       -0.00552083021610        0.00114848369648
C           -1.80438151790392        1.09991459231835       -0.00841829132115
C           -1.59903436956397        2.44056543561334       -0.02255750250189
C           -2.73079582711645        3.30179471399414       -0.03116050439774
C           -2.55311369258449        4.67976277651210       -0.04729961422317
N           -2.40020938362553        5.82725487281956       -0.06096294392174
C           -4.03870127035640        2.74818393386426       -0.02430431715091
C           -4.23743341639910        1.39891332863284       -0.00987788479971
C           -3.11873802106921        0.53077242354950       -0.00202224328708
C            0.07206199221537        0.05780057465970        1.25209516181145
C           -0.56607410755923        0.05239686798648        2.48482979270528
C            0.15429383943240        0.10262135786989        3.66303273205474
C            1.54346050239803        0.15947251456708        3.61846737376688
C            2.19883123160797        0.16430011346041        2.40880993246249
C            1.47644069461446        0.11367173814535        1.20567743921740
N            2.13890000277431        0.11957064619005       -0.00071334338358
C            3.56834789721833        0.14498022135221       -0.00117137603808
C            4.27463907633772       -1.05115385734249        0.01053789733051
C            5.65866276353465       -1.02521595994791        0.01057538285563
C            6.33267626399575        0.18525015690597       -0.00104838206852
C            5.62346920437703        1.37551536910835       -0.01287039588462
C            4.23919677589222        1.36139844917093       -0.01293932629096
C            1.47577019854015        0.09310514611899       -1.20642974223669
C            2.19739218762110        0.12299379400855       -2.41070417370449
C            1.54121460543734        0.09883695646648       -3.61968189529464
C            0.15195651921333        0.04249042296294       -3.66241001392256
C           -0.56762611360916        0.01173638919299       -2.48309073456263
C            0.07136119181378        0.03687696328419       -1.25104395905367
H           -4.35579129507093       -3.98593511814049        0.03755180120835
H           -5.05148441996861       -1.61962942600171        0.01939225186267
H           -0.20582176623422       -2.83579222116979        0.02210006489012
H           -0.60849293956255        2.87314454402908       -0.02776276529993
H           -4.87889150474296        3.42862724361806       -0.03095339511102
H           -5.23575094094872        0.98810999026949       -0.00495736492586
H           -1.64450027940523        0.00736152970792        2.51058997346124
H           -0.36041677295562        0.09785333303928        4.61107794530733
H            2.11286991794239        0.19915360073057        4.53411586708871
H            3.27578838313978        0.20766990009785        2.38148902637830
H            3.73901036585403       -1.98867449886748        0.01947938508497
H            6.20873416622739       -1.95371115996023        0.01978346987592
H            7.41179886601211        0.20089509316356       -0.00092639826047
H            6.14653460635790        2.31949365000612       -0.02199737856709
H            3.67679485822328        2.28308036769873       -0.02201696877612
H            3.27438275743729        0.16592528433622       -2.38479247730997
H            2.11003147007335        0.12318494375907       -4.53623350867820
H           -0.36338049414215        0.02289136827093       -4.60992368125380
H           -1.64610913290023       -0.03288327086699       -2.50740764625802
