  55
        -89.08494920
 N         -1.3146912885       -6.0385478218        0.0010859025
 C         -1.6663037020       -4.9467542706        0.0027246797
 C         -2.0959804568       -3.6016225056        0.0030344324
 C         -3.4643662776       -3.3144587516        0.0020894575
 C         -3.9049975024       -2.0046130290        0.0019965467
 C         -2.9644652762       -0.9842791865        0.0027331103
 C         -1.5905156726       -1.2775117483        0.0036582633
 C         -1.1433344743       -2.5764438082        0.0041253714
 C         -0.7646698508       -0.0076295821        0.0035407519
 C         -1.8494934763        1.0480838645        0.0037503008
 C         -1.6997969605        2.4137179762        0.0021285076
 C         -2.8551354385        3.2036020861       -0.0013578665
 C         -2.7326737412        4.6104601318       -0.0039485317
 N         -2.6290359810        5.7529357071       -0.0062438175
 C         -4.1265740138        2.6219331400       -0.0031245936
 C         -4.2677274273        1.2471357380       -0.0013360329
 C         -3.1254019551        0.4593011152        0.0020313716
 C          0.0715393235        0.0772904748        1.2597453267
 C         -0.5711864512        0.0605501373        2.4886349227
 C          0.1411701559        0.1146464822        3.6717823872
 C          1.5235437528        0.1808719033        3.6245778745
 C          2.1793100963        0.1979889972        2.4112691681
 C          1.4659822754        0.1514338060        1.2095564253
 N          2.1346926732        0.1734213766       -0.0014811804
 C          3.5594432784        0.2112065041       -0.0044320668
 C          4.2785662683       -0.9718978529       -0.1126028205
 C          5.6618322342       -0.9376352805       -0.1128992050
 C          6.3265963834        0.2726008457       -0.0038270395
 C          5.6083994927        1.4521193070        0.1037221421
 C          4.2248597399        1.4255240074        0.1026705273
 C          1.4609632640        0.1632908097       -1.2097529390
 C          2.1687945931        0.2437354873       -2.4129495517
 C          1.5088005558        0.2338520713       -3.6240109216
 C          0.1275182912        0.1455191308       -3.6672019009
 C         -0.5800331433        0.0713629998       -2.4823108866
 C          0.0669782607        0.0811719560       -1.2555980060
 H         -4.1724862016       -4.1299803995        0.0011424053
 H         -4.9617960194       -1.7844977540        0.0010197524
 H         -0.0891673468       -2.8105297959        0.0064139158
 H         -0.7230420858        2.8742686014        0.0027424930
 H         -4.9971068004        3.2612058605       -0.0061334143
 H         -5.2499878017        0.7994005221       -0.0028679713
 H         -1.6502025597        0.0006880881        2.5129834137
 H         -0.3762639131        0.1002986722        4.6181197696
 H          2.0976332061        0.2184189019        4.5379392005
 H          3.2571026865        0.2462674199        2.3871778679
 H          3.7485906475       -1.9093583118       -0.1971705616
 H          6.2201845725       -1.8577509608       -0.1971713047
 H          7.4057041832        0.2965973019       -0.0026316951
 H          6.1256396724        2.3959672795        0.1885113382
 H          3.6539722507        2.3385935685        0.1872590022
 H          3.2453409506        0.3162106859       -2.3911775999
 H          2.0782896280        0.2965054630       -4.5388801220
 H         -0.3930702321        0.1350658946       -4.6118090879
 H         -1.6585441959        0.0024510428       -2.5035323705
