55
 energy: -89.124390600752 gnorm: 0.000052290589 xtb: 6.7.1 (edcfbbe)
N           -1.38609942948898       -6.05411507768055       -0.03423375502908
C           -1.72236964219439       -4.95625011008076       -0.02859821755131
C           -2.13553426290505       -3.60658115366209       -0.02172892967902
C           -3.50141208972435       -3.30425645276911       -0.02023897582335
C           -3.92666772354220       -1.98928678430649       -0.01279117525873
C           -2.97420669503917       -0.97954099483334       -0.00687206100902
C           -1.60301207722596       -1.28710398394398       -0.00900620538143
C           -1.17084232290541       -2.59165596940060       -0.01610991533327
C           -0.76356274845757       -0.02434592064906       -0.00153908742504
C           -1.83965356216884        1.04279272593124        0.00709637041879
C           -1.67908138106045        2.40764623274622        0.01963685638690
C           -2.82857409263046        3.20726553080416        0.02903048109502
C           -2.69654224604918        4.61252099170317        0.04412906778764
N           -2.59022385053605        5.75574227603483        0.05682698217888
C           -4.10565284811575        2.63619514771882        0.02490236742592
C           -4.25753174928498        1.26257492750198        0.01183192821720
C           -3.12116911653279        0.46553202478195        0.00356984698950
C            0.07348949797769        0.04817491917094        1.25632427258655
C           -0.56926356017600        0.01596226411032        2.48537582077585
C            0.14151401023194        0.06989578572235        3.66982414229564
C            1.52318705199797        0.15660410057471        3.62402305720425
C            2.17892921680063        0.18958453182908        2.41081124900429
C            1.46769517176601        0.13654171090709        1.20768376049438
N            2.13850800616354        0.17261653199696       -0.00230315946895
C            3.56459951186184        0.23289335972842       -0.00263656449320
C            4.30416749895968       -0.94287028443649       -0.00628700719032
C            5.68710003824618       -0.88470436966132       -0.00601956633712
C            6.33119025993567        0.34180301061704       -0.00215882630941
C            5.59250802714467        1.51390435926671        0.00138625152903
C            4.20918601627266        1.46347530614322        0.00113994063499
C            1.46609954599129        0.15071609504804       -1.21174338601792
C            2.17601383365930        0.21608151758262       -2.41504932788744
C            1.51882217516210        0.19755973129722       -3.62778611415549
C            0.13699119690725        0.11318317309012       -3.67288561407657
C           -0.57246244959005        0.04642400112815       -2.48827113863115
C            0.07172150578265        0.06388596258418       -1.25965731239280
H           -4.21847515377775       -4.11202506832969       -0.02468837720816
H           -4.98054989403181       -1.75768929654995       -0.01126116778682
H           -0.11980407799824       -2.83955752439997       -0.01719770738934
H           -0.69948278686213        2.86229226480186        0.02305165701579
H           -4.97075689832642        3.28292505141739        0.03237923574184
H           -5.24319409084682        0.82359035405342        0.00891704178216
H           -1.64762181433839       -0.05388792391019        2.50990198908638
H           -0.37676422739604        0.04362696505065        4.61603406451487
H            2.09619486144155        0.19873260418226        4.53844782301880
H            3.25553431562936        0.25671094446384        2.38753556076851
H            3.79175280912982       -1.89389484456367       -0.00916701405341
H            6.26135982274748       -1.79917156653161       -0.00878994662048
H            7.41008692091515        0.38397159453462       -0.00182267477978
H            6.09339121788920        2.47057099780788        0.00441597114321
H            3.62359361793414        2.37127951863290        0.00394724883542
H            3.25276675020225        0.28107564474535       -2.39225747811626
H            2.09082749969126        0.24890769925969       -4.54237138411032
H           -0.38244249255963        0.09828160018943       -4.61871116276874
H           -1.65087504240366       -0.02248646338856       -2.51237030234108
