55
 energy: -89.043573058226 gnorm: 0.000109948325 xtb: 6.7.1 (edcfbbe)
N           -1.37597443278864       -6.05004610412293       -0.03490821080729
C           -1.72534826050106       -4.94630299978172       -0.02876753612070
C           -2.13694639487477       -3.61930384510901       -0.02154036972649
C           -3.52023451868479       -3.29711349529719       -0.02081055601751
C           -3.94588098465000       -2.00144122425917       -0.01356415891732
C           -2.99186678981485       -0.95487279096959       -0.00661970264164
C           -1.59990161596179       -1.29134678458526       -0.00824641954304
C           -1.16896801892907       -2.57733141556395       -0.01486973497270
C           -0.75300478184780       -0.02081910581150       -0.00068300195759
C           -1.83807901173925        1.05125376900662        0.00785314979955
C           -1.67542524418559        2.39781289913062        0.02018877936897
C           -2.83381386737661        3.22288488946039        0.02862707295994
C           -2.69936746467411        4.60575008142420        0.04271614188657
N           -2.58238787117799        5.75748502403799        0.05437889666185
C           -4.12374995101484        2.62864408105983        0.02358745592987
C           -4.27970454576962        1.27375538440646        0.01092747787452
C           -3.13412369273131        0.44143862361143        0.00336872800877
C            0.07124143559688        0.04791227373242        1.25073171308416
C           -0.56604102849907        0.01426549690400        2.48347810414676
C            0.15357213122959        0.06617967171341        3.66204844316614
C            1.54128720155307        0.15214962066669        3.61796265188994
C            2.19577106523866        0.18598553859075        2.40832072644622
C            1.47404652289106        0.13539176977380        1.20479602938594
N            2.13554747962231        0.17300130508208       -0.00152340927409
C            3.56377782159964        0.23414995116948       -0.00217728730127
C            4.30004223549803       -0.94374780746866       -0.00602047367811
C            5.68294188872188       -0.88254781221864       -0.00689942580731
C            6.32588425820187        0.34476679756278       -0.00388476710849
C            5.58675896376956        1.51678380557695        0.00006479481507
C            4.20331098553156        1.46737745096559        0.00088159959841
C            1.47235080857271        0.15024930197974       -1.20731559100518
C            2.19263214479619        0.21424541839869       -2.41108297688721
C            1.53663898325772        0.19454968053374       -3.62023188477596
C            0.14884987279019        0.10976084010649       -3.66353927949700
C           -0.56934823243034        0.04465228610081       -2.48472060913245
C            0.06943660056664        0.06367815888167       -1.25244253400636
H           -4.23207258085190       -4.11091452695234       -0.02599675862122
H           -4.99956139791188       -1.76638517328403       -0.01271159103871
H           -0.11943414254774       -2.83527000193931       -0.01541649041543
H           -0.69934685932290        2.86203011394659        0.02415510313314
H           -4.98504949922530        3.28221882359434        0.03020512486447
H           -5.26442712860394        0.83134579033041        0.00739843514983
H           -1.64325471471771       -0.05410041582860        2.50905658746742
H           -0.36047838058823        0.03961361184928        4.61009057198770
H            2.11015523923216        0.19242107515742        4.53391452690329
H            3.27153351569991        0.25239467417822        2.38122178544153
H            3.78814543369052       -1.89446667609110       -0.00832113681666
H            6.25647093320250       -1.79678305730805       -0.00997722273954
H            7.40424487887877        0.38757776229007       -0.00459164841922
H            6.08569899357940        2.47380322824748        0.00248007714952
H            3.61694865011490        2.37406535234701        0.00393506482119
H            3.26848891480974        0.27964136994025       -2.38455619681958
H            2.10441158200266        0.24473819146118       -4.53637421633958
H           -0.36640358802650        0.09415133872862       -4.61117191622983
H           -1.64658762356310       -0.02328117793279       -2.50980021130780
