55
 energy: -89.124344130477 gnorm: 0.000059151322 xtb: 6.7.1 (edcfbbe)
N           -2.22175825934823       -5.93521683899190        0.00008560611716
C           -2.44590869673846       -4.80910478001899        0.00016687768217
C           -2.72122539714219       -3.42468686742506        0.00011029882365
C           -4.04962388020590       -2.98599762575936        0.00006155473354
C           -4.34041005711942       -1.63483784015716        0.00003197759814
C           -3.29103893381009       -0.72628693313896        0.00005709758720
C           -1.95785378669017       -1.17088214572723        0.00005382900985
C           -1.65900615907244       -2.51223969216466        0.00009092582277
C           -0.99540977311420        0.00000484807840        0.00001748063316
C           -1.95783313014510        1.17090859005624        0.00000948162137
C           -1.65896165367171        2.51226094395289       -0.00003167876400
C           -2.72116362300999        3.42472562668103       -0.00008065436428
C           -2.44581558671655        4.80914777485813       -0.00023027022967
N           -2.22163551233899        5.93527381535117       -0.00050828591168
C           -4.04956959842976        2.98606392773052       -0.00005171210768
C           -4.34038063485015        1.63490901045825        0.00003567744100
C           -3.29102601411529        0.72633921814534        0.00004603925771
C           -0.15585409856507        0.00000994360389        1.25806048078874
C           -0.79986070671873        0.00001083935325        2.48687144390068
C           -0.08755654867592       -0.00001675676923        3.67159756541989
C            1.29683010155969       -0.00003610245094        3.62623030692593
C            1.95378943393400       -0.00003011527562        2.41321935943053
C            1.24108685795276       -0.00001218077634        1.20977320956013
N            1.91326077614950       -0.00002503430130        0.00000138661886
C            3.34076014139285       -0.00002745463406       -0.00000402149714
C            4.03356270108898       -1.20409439050061       -0.00003405233604
C            5.41776553016616       -1.20019234639200       -0.00003291355281
C            6.10977283816743       -0.00003048370225       -0.00000249057792
C            5.41776822940808        1.20013293102285        0.00002111093146
C            4.03356546467434        1.20403791681028        0.00002057589461
C            1.24107615197088       -0.00002384111486       -1.20976448362856
C            1.95377172799712       -0.00002178246382       -2.41321551766086
C            1.29680461469438       -0.00000012143596       -3.62622200224056
C           -0.08758222678709        0.00001180115075       -3.67157671182627
C           -0.79987914983378       -0.00000226963506       -2.48684542986750
C           -0.15586686045285       -0.00001674443578       -1.25803652982713
H           -4.84501610836773       -3.71681250781454        0.00004540196234
H           -5.36568342738312       -1.29851251210586       -0.00001855398652
H           -0.63797450880903       -2.86432077915273        0.00010824912708
H           -0.63792346277416        2.86432261020607       -0.00005539792199
H           -4.84494830484682        3.71689348797772       -0.00012236288836
H           -5.36566020231243        1.29860261928609        0.00009103008808
H           -1.88049428231140        0.00002844203388        2.51086000208105
H           -0.60681739844794       -0.00003135162138        4.61764034937809
H            1.87107719269556       -0.00006107022490        4.54085581899014
H            3.03249005457815       -0.00004535490010        2.39032260817307
H            3.48460037072167       -2.13449983836914       -0.00005858959193
H            5.95573123749467       -2.13647213316613       -0.00005726198746
H            7.18952573449770       -0.00003168738874        0.00000362493057
H            5.95573595616680        2.13641154121438        0.00004483258008
H            3.48460528291378        2.13444461799060        0.00003960000233
H            3.03247300345579       -0.00003053699724       -2.39032940555878
H            1.87104445643185        0.00001199642069       -4.54085265403574
H           -0.60684860971287        0.00004003232702       -4.61761605515755
H           -1.88051226560318        0.00000658430593       -2.51082776758573
