76
 energy: -121.655014138108 gnorm: 0.000089477239 xtb: 6.7.1 (edcfbbe)
C           -0.04174258578236       -6.78580496011240       -0.62061153197735
C            1.16330145098670       -6.10436440188045       -0.55041557746984
C            1.17436527019151       -4.72855194347534       -0.42873044145612
C           -0.02413636320054       -4.02103641598394       -0.37604790960425
C           -0.01551387231498       -2.56471839508861       -0.25474351659059
N           -1.15225445601400       -1.91050018723350       -0.19958224244149
C           -1.20174921380395       -0.54764512583514       -0.09953970685220
C           -2.50796827521807        0.05572493134073       -0.02980778443620
C           -2.71700714473362        1.44058138178530       -0.08597555621830
C           -3.99499787638589        1.97273628468698       -0.02118173034701
C           -4.19122441118248        3.42726080735014       -0.10332181892222
C           -5.23536232866093        3.97548763710844       -0.84748611057885
C           -5.37250091241979        5.35202345617661       -0.89461382326549
N           -4.56216219745220        6.18415080377443       -0.26489500313934
C           -3.57144027035129        5.67308444455520        0.44425620733248
C           -3.34096872615448        4.31304728138944        0.55790385077632
C           -5.09465648173590        1.12652907886370        0.11545121552774
C           -4.91046213687170       -0.25436903988727        0.17615511962712
C           -6.06502636264982       -1.15108136671133        0.32972114049271
C           -6.14404039295024       -2.35530036379992       -0.36900152616472
C           -7.25224754455050       -3.16366537069644       -0.18473737089541
N           -8.24873906926361       -2.85477970451423        0.62595103065808
C           -8.18156400297262       -1.71604450052862        1.29197769122756
C           -7.12165793446599       -0.83236242672912        1.18167256534347
C           -3.63200604317791       -0.77681560298405        0.09542627557809
C           -0.00032914278300        0.15483987989198       -0.05450655616244
C            1.19459701653733       -0.56033736274652       -0.10604090155093
C            2.50775162750545        0.02708956415538       -0.04808366561722
C            2.73131290219658        1.41103676067967       -0.03537622281141
C            4.01572877626626        1.92666271478253        0.03315884456405
C            4.22395862534763        3.38164702204992        0.04893910168888
C            3.47765665753913        4.23105758793040       -0.76743951983586
C            3.71450583416216        5.59352404181356       -0.71016995684147
N            4.61699529803840        6.14025602480748        0.08493004426014
C            5.32894986056028        5.34293277059274        0.86145761201652
C            5.17590666775314        3.96754111092821        0.88270966984307
C            5.10994453376319        1.06413085268784        0.09108167935391
C            4.91278289158965       -0.31635656944904        0.06449303021057
C            6.06148533966217       -1.23162321766859        0.11960504727203
C            6.10087317647248       -2.39165329264500       -0.65336908524650
C            7.20499700416363       -3.22082737404813       -0.55918394495885
N            8.23364033768549       -2.97229343140180        0.23185787492041
C            8.20462061556727       -1.87552699607628        0.96747011995983
C            7.15220008112821       -0.97654234252165        0.94981712394569
C            3.62685446635101       -0.82106216511588       -0.00632601001297
N            1.12776101696500       -1.92234098033445       -0.21008270000764
C           -1.23153472691477       -4.71173184851208       -0.44652856430478
C           -1.23804563814638       -6.08755828412773       -0.56814819309777
H           -0.04856249041634       -7.86148607107693       -0.71642369413663
H            2.09460607755026       -6.64977249630028       -0.59101245535215
H            2.10470266074049       -4.18413524078980       -0.37305100375587
H           -1.88327908507722        2.11186624916948       -0.22090908938697
H           -5.91430326219384        3.33900507665036       -1.39396910111374
H           -6.16775810172672        5.81441081383790       -1.46466350829730
H           -2.93517761020259        6.39102365948449        0.94531219110035
H           -2.52809787264222        3.94532736716839        1.16541266206235
H           -6.08930730081026        1.54188793506420        0.17162023999762
H           -5.36353688697191       -2.64399543477381       -1.05601623780847
H           -7.35145399215573       -4.10403324182830       -0.71120779455830
H           -9.01792673171106       -1.50531340109296        1.94565718240372
H           -7.10657348614671        0.07791435731258        1.76121744765990
H           -3.47291005882710       -1.84208378909072        0.16218680778295
H            0.00474728669794        1.22673134244196        0.04370821162256
H            1.89966476207931        2.09771556449070       -0.05886063994625
H            2.74115502233519        3.83254394382391       -1.44841753263754
H            3.15767428901299        6.28354642224669       -1.33076909184787
H            6.05445469854179        5.83390075068496        1.49692587944388
H            5.77102102621461        3.36162489648656        1.54851024713581
H            6.11148117484163        1.46643261904389        0.10454268123910
H            5.29283769356784       -2.63025012321513       -1.32763187502682
H            7.27358789103642       -4.12825644850483       -1.14499610022151
H            9.06657647583742       -1.71359705805909        1.60154129387512
H            7.16946510908679       -0.10353109777438        1.58393144157310
H            3.45824096167644       -1.88689037154938        0.00135798157965
H           -2.15459013236365       -4.15373476764968       -0.40585781575787
H           -2.17616273670659       -6.61992275307786       -0.62271938650540
