76
 energy: -121.729319706416 gnorm: 0.000035168767 xtb: 6.7.1 (edcfbbe)
C           -0.01863587206721       -6.65880101986046       -1.59958122033763
C            1.18329832387072       -5.98265634032270       -1.46027162415898
C            1.18957860434742       -4.63707878210002       -1.14838963552551
C           -0.01192074661780       -3.95367441569545       -0.97222556820520
C           -0.00827380522607       -2.52800519710897       -0.63528413109436
N           -1.18393906607098       -1.92755363638977       -0.48665405694179
C           -1.19164924201431       -0.63753454605358       -0.16504352821195
C           -2.51320388141377       -0.01532050555899       -0.00419347665687
C           -2.70629533111624        1.35014672046492       -0.18167674405693
C           -3.97131082717883        1.90946738862689       -0.03504859162499
C           -4.17164774729603        3.35232447391028       -0.23623967423477
C           -5.28729616223263        3.84147705917848       -0.91370294851748
C           -5.42244512163111        5.21000414094268       -1.07596748312699
N           -4.54831357648057        6.09036308075586       -0.61931280060684
C           -3.48995744677124        5.63051260337517        0.02555118464093
C           -3.25207860220219        4.28395557379394        0.24308977773746
C           -5.04422858146687        1.09014928308840        0.29929394285433
C           -4.86800432098207       -0.27869489997853        0.47539250093709
C           -6.00936669360711       -1.14024181407255        0.81701928549482
C           -6.15732799416941       -2.39997950110472        0.23858953459394
C           -7.25306525076019       -3.17011791251016        0.58929942944521
N           -8.17558404755743       -2.77920859739928        1.45211247588332
C           -8.03656820367371       -1.58641313600722        2.00463634482395
C           -6.98396134865480       -0.73094598624366        1.72541157737673
C           -3.59982950511025       -0.82305845809107        0.31636865441706
C           -0.00055830426583        0.06324933995084        0.02025470325272
C            1.18651164777240       -0.64099202700287       -0.17695028266636
C            2.51298916693008       -0.02561457285137       -0.02972254911095
C            2.70906543809144        1.34226650538637       -0.18350649507665
C            3.97633648835033        1.89556381635820       -0.03472080394284
C            4.17647374917696        3.34349357984467       -0.19656256035885
C            3.53481215814179        4.05554541659127       -1.20866659256947
C            3.75753350535379        5.41842152272788       -1.31057147749209
N            4.54884495971503        6.09270854589547       -0.49406750379553
C            5.15929014916177        5.42090647576532        0.46700636394896
C            5.01252420360080        4.05769750785880        0.66015168648101
C            5.05134222549003        1.06655101536827        0.26772241070652
C            4.87510327833941       -0.30695364979574        0.40427586833622
C            6.01996374460278       -1.18129190483981        0.69800717766094
C            6.15006337235037       -2.42649136470043        0.08487908503878
C            7.24917996700681       -3.20996656003768        0.39291964615935
N            8.19137544653069       -2.84523908431927        1.24585406229935
C            8.06973439094228       -1.66622738737245        1.83103695467561
C            7.01547488879655       -0.79980854103876        1.59576872687826
C            3.60258650752830       -0.84345428990654        0.25359534128729
N            1.17043515152600       -1.93059541979344       -0.50077107459798
C           -1.21687568260123       -4.63848806175047       -1.11635110797502
C           -1.21722805029259       -5.98412678471342       -1.42806491087840
H           -0.02125616209454       -7.71123064955472       -1.84287629877846
H            2.11670736448555       -6.50926882157367       -1.59595429753548
H            2.11592747218810       -4.09544874200198       -1.03925785225940
H           -1.88352075632411        1.98243612028273       -0.48041151935821
H           -6.02278971621144        3.16558551687457       -1.32262726592148
H           -6.27339583540049        5.62614269733766       -1.59948875189187
H           -2.79969088523606        6.38245135979471        0.38570340765517
H           -2.38006232229190        3.96412492509074        0.79329887131627
H           -6.02709651731350        1.52235570121169        0.41771334697653
H           -5.44129715343049       -2.75948522857398       -0.48427284745789
H           -7.40428999711907       -4.15131139811831        0.15814350585644
H           -8.81025497277733       -1.30467640784194        2.70720075936097
H           -6.91090462036605        0.22643205975207        2.21873115858425
H           -3.43101965088497       -1.87853483837585        0.46145676703602
H            0.00171122613910        1.09163402199497        0.33968723361438
H            1.87831093090237        1.98925084418741       -0.42215892938668
H            2.89228268837737        3.55122596445084       -1.91446382538710
H            3.27920923385601        6.00343105120667       -2.08549284342887
H            5.79679028787704        6.00878506783308        1.11463093519598
H            5.52121246711793        3.56155707079246        1.47262523753509
H            6.04206679682220        1.48922425535101        0.35002876574123
H            5.41755382852829       -2.76454085248937       -0.63175319465419
H            7.38653878154298       -4.18056193084472       -0.06596104775844
H            8.85933944466524       -1.40574071474651        2.52404622370213
H            6.95759855126417        0.14473685652659        2.11502609079578
H            3.43265921527777       -1.90156780082366        0.37611534517256
H           -2.14058090764384       -4.09790023594277       -0.98240985376037
H           -2.15325702210203       -6.51199488647655       -1.53846667520422
