76
 energy: -121.729316802897 gnorm: 0.000025287249 xtb: 6.7.1 (edcfbbe)
C           -0.07100205619558       -6.62704628613178       -1.55788732457581
C            1.13663688394216       -5.96385359461561       -1.40617934546031
C            1.15422580710252       -4.61707485381665       -1.09995146563193
C           -0.04166897496617       -3.91964492830688       -0.94158130439283
C           -0.02633117891562       -2.49208531871086       -0.61335728744238
N           -1.19701697208023       -1.88156731713057       -0.46722948303676
C           -1.19494322352213       -0.58812183556836       -0.15951604451669
C           -2.51235481763257        0.04202108138904        0.00443507707109
C           -2.70299220770831        1.40503213915478       -0.19291254114648
C           -3.96500716543394        1.97020656387996       -0.04248211889913
C           -4.16412457505134        3.41013056984715       -0.26483759637897
C           -5.28528370492888        3.89084272725685       -0.93924371053448
C           -5.41965237647517        5.25695274568936       -1.12126536228754
N           -4.53981087162929        6.14260888272449       -0.68631921687826
C           -3.47609937569493        5.69075397030940       -0.04463468455512
C           -3.23835534655871        4.34725307447052        0.19121764139077
C           -5.03663147378726        1.15974285440349        0.31674733441447
C           -4.86244858792143       -0.20642252329371        0.51442665102407
C           -6.00152664071267       -1.05888356175690        0.88516997820567
C           -6.15715518766179       -2.33021968222508        0.33474277242879
C           -7.24934616659020       -3.09186232577880        0.71387450324435
N           -8.16180903349203       -2.68214814599043        1.57865436541489
C           -8.01578768787933       -1.47811300926233        2.10433407784604
C           -6.96566527475776       -0.62976490904329        1.79560546319992
C           -3.59763184939653       -0.75702519086590        0.35028695659455
C            0.00145827775865        0.10738896551540        0.01072971857098
C            1.18247488110428       -0.60953561268691       -0.17645131465033
C            2.51352489746016       -0.00294170401803       -0.03425334566468
C            2.72679426789661        1.35459599445676       -0.24497080542580
C            3.99832872097853        1.89988682340380       -0.10239346224834
C            4.22002031484668        3.33585572343841       -0.32945648766999
C            3.60293445927784        4.00686468517639       -1.38399999442031
C            3.84762442234466        5.35979484434191       -1.54881243421564
N            4.63788227436111        6.06166057801340       -0.75484402915348
C            5.22461283722533        5.42892494244778        0.24667133918385
C            5.05458060348107        4.07905815193672        0.50375016395107
C            5.05851951213237        1.07350770299130        0.25482168803566
C            4.86440293009817       -0.29030890517785        0.45096087398059
C            5.99367619867369       -1.16230680836701        0.80554548333100
C            6.11976374835950       -2.43656276303649        0.25443788950118
C            7.20339680627543       -3.21696422627222        0.61980836689011
N            8.13427257176220       -2.82287526781507        1.47210416952436
C            8.01651250927510       -1.61603361068890        1.99837800834289
C            6.97735851738064       -0.74988787166245        1.70270330363431
C            3.58856678594567       -0.81954836581534        0.30221527010072
N            1.15715831373027       -1.90290259699984       -0.48347118381027
C           -1.25240790583281       -4.59153912176119       -1.09764008603159
C           -1.26400322028722       -5.93833503905585       -1.40404796793685
H           -0.08241006164822       -7.68031123550415       -1.79727592900794
H            2.06563607886059       -6.50152011568777       -1.52803092497784
H            2.08507934135800       -4.08513151522045       -0.98176271605767
H           -1.88119736910461        2.02974321140257       -0.50983701165021
H           -6.02576832845804        3.21006979272447       -1.33069581340648
H           -6.27483377238677        5.66657637417250       -1.64302674671362
H           -2.78128953472335        6.44689027015339        0.29753615874520
H           -2.36164265168575        4.03422760270197        0.73785578679451
H           -6.01690587579363        1.59697910198785        0.43815414511542
H           -5.44965923736888       -2.70561459772605       -0.38842337712715
H           -7.40592895163045       -4.08184159506570        0.30530582496921
H           -8.78134441047205       -1.18094077544253        2.80943952331618
H           -6.88634083199277        0.33752119492873        2.26817905839042
H           -3.42999730000039       -1.81041086929960        0.51120908975308
H            0.01337307448752        1.14055479195791        0.31454167785440
H            1.90614639960060        1.99806041399091       -0.52503255250007
H            2.96268916851740        3.47798132114115       -2.07368855470677
H            3.38899925652701        5.91307227862924       -2.35817984813888
H            5.86206982389408        6.03843428863876        0.87402528599522
H            5.54456529694108        3.61596554434325        1.34665818143797
H            6.05276695792838        1.48849531947493        0.33366888692013
H            5.39632620826375       -2.80001190196496       -0.45895102432150
H            7.33710755644457       -4.20983610123997        0.21015980225167
H            8.79650707746901       -1.33189713543791        2.69297513092802
H            6.92156095620019        0.21881684770153        2.17560781761099
H            3.40474688102592       -1.86945837396564        0.46806418336307
H           -2.17149159518701       -4.03983628017088       -0.97789276287981
H           -2.20443582335049       -6.45608350222089       -1.52446479085843
