64
 energy: -96.680000698615 gnorm: 0.000033983383 xtb: 6.7.1 (edcfbbe)
C           -0.76207155214202        1.71593819878126        2.28385701551779
C           -1.36213307998213        0.73084451277973        1.26938136151137
C           -1.75835518630527       -0.52724433885162        2.04822532683680
C           -3.61031300984672        0.77602770933010       -0.17078944409303
C           -4.87070523727544        1.51024756167513        0.16126786162813
C           -6.05071768030381        0.64992408256603       -0.09520858249567
C           -5.94244976055189       -0.64147538995204       -0.39723855043345
C           -4.66062769855617       -1.42429320723974       -0.58470427342470
C           -2.39819057148838       -0.60830890592605       -1.58218410993041
N           -1.65297952822491       -1.76559249476438       -1.87720621098724
C           -0.66640201462390       -2.06700288338138       -0.94311343162324
C           -0.27919592005327       -3.41562393623872       -0.92322132651341
C            0.58153438890776       -3.92966032719871        0.01760791870636
C            1.09283669398913       -3.07961498740508        0.97628810376294
C            0.80856036291354       -1.71841605418564        0.91127019661995
C            1.50801224103283       -0.88540615468289        1.91483217385072
O            1.66570041893538       -1.22934259172619        3.07066138530331
C            4.10532457139227        1.14016010973025        0.08974259908527
C            5.31411053106772        0.91126970089700       -0.68154641224686
C            5.48304257768785       -0.07263997735664       -1.58767336470560
C            4.51791769345629       -1.10327093788469       -1.85959294971619
C            3.73649044650020       -1.63691029549551       -0.91459719914679
C            3.93824188424396       -1.25825442935084        0.51760656245482
C           -0.06679532469172       -1.15866851809835       -0.03656947389162
C            3.72596698824606        2.54363396759353        0.16244313682777
C            3.37481403740023        0.12899265664546        0.61460441780971
C            2.07345418322658        0.39473777751262        1.35777510794386
C            1.07580812197396        0.98463175337675        0.40748983744102
C            1.33898954055998        2.14515128147961       -0.21242096546685
C            2.48255059022242        3.00055225926374       -0.02445059215152
S            0.10929866944802        2.60810589673657       -1.39325435480833
C           -0.70499311752540        1.06430857420190       -1.14511249324074
C           -1.68579646166481        0.63953059762962       -1.91996729537740
C           -3.51021935931482       -0.49667866568114       -0.84054412556144
C           -3.97334951333869        1.04086909668573        1.27150593675554
C           -2.62464084734459        1.44955901803697        0.73103264493780
C           -0.27276971828154        0.35595407529360        0.11038008471159
H            0.03887255988060        1.25721979469382        2.85687430568681
H           -0.38387816836454        2.61333099210759        1.80072190632846
H           -1.54208448991025        2.01449367403987        2.98214786102162
H           -2.40464119155967       -0.25360392311682        2.87785374057573
H           -2.27129340246081       -1.24729170206808        1.41629034701515
H           -0.88763898100769       -1.00983659656943        2.48078003985964
H           -4.97020053936403        2.57240702864414       -0.03895138599286
H           -7.02739385250716        1.10717070211031       -0.01891757214018
H           -6.84165801310456       -1.22664301450116       -0.54033932296481
H           -4.78481577722364       -2.12161896037769       -1.41786785076871
H           -2.16589099283398       -2.57776283139159       -2.19670604793964
H           -0.71901054952907       -4.07459476903478       -1.65927083286490
H            0.82773281444285       -4.98020498672002        0.02077021642669
H            1.72899086442350       -3.44514221767741        1.76864166515724
H            6.05331963354641        1.70123766960399       -0.63449979284996
H            6.35452556360961       -0.04083709983965       -2.22945889382683
H            4.44025666066170       -1.43925279003118       -2.88497342654686
H            2.95252600045401       -2.33984353989026       -1.15492858422160
H            3.46461448901226       -1.95523642269175        1.20182746632446
H            4.54031253245795        3.25181609857335        0.23769650954801
H            5.01062260189586       -1.21856150556384        0.73629962607111
H            2.29941187201627        1.09286190575111        2.17787847810261
H            2.29606849349088        4.06301663673462       -0.10405433711617
H           -2.02452911151957        1.19416111411209       -2.78182782154569
H           -4.48737380009254       -2.03219965522033        0.31403553100574
H           -4.24267646887895        0.37822689668125        2.06471702416177
H           -2.45393238738880        2.51241803049894        0.56633426606361
