64
 energy: -96.622809343773 gnorm: 0.000067947372 xtb: 6.7.1 (edcfbbe)
C            0.28690995451685        1.91813772962968        0.89725587515071
C           -0.84363216959505        0.89932253443628        0.64692947144420
C           -1.30008340803248        0.39098847032661        2.01923353141732
C           -3.33961735563282        1.45079293073690       -0.21459030569860
C           -3.98861338355038        2.79520192228501       -0.17893363641465
C           -5.36985997054969        2.69420102357886        0.35153212515614
C           -5.84227495162564        1.58128132078385        0.90637203784260
C           -5.12048059967103        0.26068921535129        1.04898631845468
C           -3.20733018293665       -0.83932961155703       -0.34672308019697
N           -3.04173372012008       -2.08491260549489        0.25273447582255
C           -1.76801965617984       -2.53436596124953        0.51486853495393
C           -1.63488335032334       -3.84734430978655        0.99871901875885
C           -0.41618660381985       -4.49095201916909        1.06182773821599
C            0.70925270178486       -3.86395188349028        0.55887440610943
C            0.59069248155314       -2.54028232183571        0.15233387392889
C            1.62245904829696       -1.81120725630455       -0.56232370878391
O            2.59892608307401       -2.25856451976311       -1.14653612282281
C            4.12265530531448        0.91613827738339       -0.44718141518734
C            5.39035319631632        1.53754810435242       -0.17908518478970
C            5.78525195106470        2.19942522136045        0.94108912320760
C            5.04047344719134        2.31589551790094        2.15763223374864
C            4.22285094176682        1.35313481085084        2.60249632864210
C            4.13606189759767        0.04863692547854        1.88068588897597
C           -0.59743138642925       -1.79813805241197        0.25746855547828
C            3.71949623807582        1.02960283325770       -1.80988670104852
C            3.38929484127944        0.29382929642776        0.58862586608920
C            2.07287226778999       -0.13026088246936        0.56653809612850
C            1.13784694879848       -0.31682259282115       -0.56182550686411
C            1.33803375527306        0.29746518123773       -1.87728338326477
C            2.51268512412756        0.77626641516609       -2.42732067698831
S           -0.06989931247406        0.08931463554109       -2.89578006744124
C           -1.10227954947964       -0.33004185787037       -1.54147227411522
C           -2.40770642986088       -0.57505450066313       -1.57301999388882
C           -3.93533714264359        0.19164484050930        0.13055837627457
C           -2.90149487254442        2.49669058902079        0.81387906948087
C           -1.89478089666870        1.80273505675128       -0.05887713997772
C           -0.37280283932109       -0.35483317445716       -0.22923480331442
H            1.01749217945060        1.56102039544974        1.61363333475388
H            0.79999974793296        2.18628468975263       -0.02303841984802
H           -0.15943216068116        2.82298505309382        1.30622755314654
H           -1.37728959864761        1.21571407005426        2.72259903919955
H           -2.25517263522566       -0.11939345654728        1.96879164643967
H           -0.56371818677321       -0.30886803533809        2.40930827134580
H           -3.80735299654339        3.52135876680539       -0.96519472175916
H           -5.99632807142570        3.57237815142607        0.28170113328472
H           -6.84970856411696        1.57744013395437        1.30242356434656
H           -5.81972276792728       -0.55046068929235        0.82404539214731
H           -3.80267127126782       -2.47940027691669        0.78665802259049
H           -2.53421015198400       -4.37499623080941        1.28209512476832
H           -0.35840841845349       -5.50157725769357        1.43622128795335
H            1.65839765754765       -4.36704013714848        0.46356116274503
H            6.03403007744638        1.64326791762074       -1.04507541522483
H            6.70120295898796        2.77436297716523        0.88325908902191
H            5.17984689800227        3.22255836927194        2.73120540332126
H            3.62461259713608        1.49100872502132        3.49092463001889
H            5.14216847294102       -0.30972118688765        1.64290272561183
H            4.47711057983713        1.44001206512134       -2.46501991851213
H            3.62877825877620       -0.70410733561436        2.48300766837147
H            1.68891408281510       -0.53842577663920        1.49281032013515
H            2.45841725365407        1.02086638251274       -3.48173623201813
H           -2.96737846883608       -0.52312988022653       -2.49558498319814
H           -4.82410444700472        0.13700018918916        2.10054987378234
H           -3.00337328102394        2.48474567147273        1.87791571844513
H           -1.44352091232343        2.37999908919234       -0.86439316751333
