64
 energy: -96.599833711542 gnorm: 0.000062877310 xtb: 6.7.1 (edcfbbe)
C           -0.72208240004494        1.58743173010641        2.22750040675810
C           -1.41238914485956        0.66830007617073        1.20922696622617
C           -1.76907977714936       -0.63264328458823        1.93286853792097
C           -3.77982295150082        0.80513422453614       -0.01525565997725
C           -4.98334231487340        1.56224390562113        0.45067391006266
C           -6.20496281456406        0.73688891013568        0.29338532355543
C           -6.16092540414626       -0.54819966304993       -0.04918711813892
C           -4.92699900160108       -1.35751927810886       -0.38459325060975
C           -2.72158684127425       -0.57763458755378       -1.53804961930601
N           -2.02511382118908       -1.72876617177638       -1.93490649448702
C           -0.88897729954093       -2.02788833491507       -1.18635917108758
C           -0.44073099232861       -3.35000963002957       -1.32505776247293
C            0.56173722713470       -3.88512728112052       -0.54868549530485
C            1.13692235130823       -3.09251159933025        0.42259766901493
C            0.77598315224159       -1.75258354275623        0.50837497351686
C            1.45782450794780       -0.95668425463758        1.53997369539332
O            1.61851707918699       -1.34690353317351        2.68691623124481
C            4.15325972593618        1.23835674784541       -0.01455843441533
C            5.54624966500191        1.03726722886059       -0.38416380803433
C            6.08605392562760       -0.06825321366716       -0.93497034868195
C            5.40174559631574       -1.32417165805810       -1.10740739995900
C            4.49087510017041       -1.76733313208865       -0.23840153191047
C            4.20345319927543       -0.98989096686488        1.01276290095535
C           -0.21158284270904       -1.15841217055141       -0.29665065469584
C            3.67562145515830        2.52080796476460       -0.34170044587605
C            3.41773603255596        0.21347334986748        0.58345196343322
C            1.97784681879266        0.37011566670057        1.03590766191579
C            0.96914456486578        0.93904788932536        0.10626490681570
C            1.22992955340607        2.10881595092809       -0.62150670504900
C            2.36630749052037        2.89559656889781       -0.66499051336547
S           -0.15799116379225        2.59395946073217       -1.58654363094100
C           -0.96729503387439        1.07753577057199       -1.24275303764229
C           -2.02634178395816        0.66705013769603       -1.91849353454040
C           -3.77493132588695       -0.45611283811704       -0.71405280800906
C           -3.99806518268704        1.04830117707326        1.46166110975835
C           -2.69587179795289        1.43322932979741        0.80326229451482
C           -0.41166008921137        0.35218302408719       -0.04919320770339
H            0.05189261552253        1.05715259425758        2.77493103717372
H           -0.28948867216340        2.46404811480400        1.75037606977761
H           -1.46151540307354        1.92713795792323        2.95057126078763
H           -2.33387715686820       -0.40644628618060        2.83335296950311
H           -2.35182739319935       -1.29734399036179        1.30161050289949
H           -0.87621754917692       -1.16038911605781        2.25170816768040
H           -5.07262447693422        2.63030482079017        0.27959999157623
H           -7.15699851230227        1.21433647728122        0.47885773950986
H           -7.08510048796396       -1.10768954643517       -0.11455614310996
H           -5.15030868090766       -2.01696175493414       -1.22788000523939
H           -2.57303031195317       -2.54362937090093       -2.17983864896493
H           -0.94469718713188       -3.97581012184929       -2.04848904866011
H            0.86112897226257       -4.91420075136964       -0.67415455591911
H            1.87552806645962       -3.48110363343691        1.10693298448601
H            6.14976644133530        1.93709553362586       -0.37825842353989
H            7.08899654650561       -0.00618846516378       -1.33871930139277
H            5.67424039208283       -1.91804957165968       -1.96991521131078
H            3.94345530090318       -2.68239934504459       -0.40727616649369
H            3.68382135886393       -1.59980555633863        1.74514126370668
H            4.42943057882825        3.26035557568837       -0.57559383689250
H            5.15534633969132       -0.65845944617926        1.44572182840553
H            2.06278873120238        1.05952606609111        1.89484789414969
H            2.25047987442066        3.86105287272515       -1.14021528239972
H           -2.42978339451575        1.22700708780492       -2.74858988048032
H           -4.69242521047980       -2.00615293995692        0.47072801710138
H           -4.20744948989618        0.37435195131137        2.26348883048441
H           -2.51082151399024        2.49498436651580        0.64596097394216
