82
 energy: -136.805597907749 gnorm: 0.000072107050 xtb: 6.7.1 (edcfbbe)
F           -3.65681546340050       -6.07207872933516        0.43526358179463
C           -3.16924549646974       -5.33507117342421       -0.57743371612649
F           -3.79685212013688       -5.79468841956676       -1.69220808828423
F           -1.88093649931380       -5.71980539950585       -0.72671309360459
C           -3.32253725568882       -3.86637793622181       -0.38753593390816
C           -4.14833234074565       -3.35285273093465        0.61515936942011
C           -4.29128659958040       -1.99280832490669        0.75624744282572
C           -3.60740080367749       -1.11543474407116       -0.09960813149996
N           -3.76064304664643        0.25866897508039        0.02604376299190
C           -2.74597844404298        1.23557637929420        0.00428506459669
C           -1.35770088213117        1.04550082753247        0.06684151503467
C           -0.51994468032306        2.17151632715430       -0.19490497944656
C            0.83531133932543        2.07224750945168       -0.16823342649551
C            1.48820642080982        0.84603957243832        0.12859448891042
C            2.91862317139005        0.72644840930600        0.11858653321372
C            3.55116125089011       -0.51726401984560       -0.09906986437300
C            4.91754456927651       -0.63671566362225       -0.11613700663547
C            5.73236074149431        0.48377392273800        0.08727188332070
N            7.12073151551082        0.36532344538606        0.07098428847409
C            7.99465182408864        1.18947340844990       -0.61361777023440
C            7.72393745968051        2.24663665835117       -1.47231800298174
C            8.79614788821480        2.89225749452579       -2.06026214807967
C           10.10804490214958        2.49430502844833       -1.81404596776379
C           10.38250490134674        1.42139130847990       -0.98554163420644
C            9.32248913769044        0.75845022008975       -0.38428669344073
C            9.23639937298662       -0.38236630522926        0.48836148617260
C           10.18461546501281       -1.20951148697029        1.07251621340223
C            9.75341256052758       -2.22527187500584        1.90628250451995
C            8.39851927707872       -2.40635662265382        2.17356987908907
C            7.43571102057906       -1.59337170681086        1.60407063901883
C            7.86008585027180       -0.59189143826692        0.74082481811878
C            5.12550498597750        1.72653959496395        0.30715549898362
C            3.75887974896341        1.84308810243161        0.32025899758150
C            0.65407444264413       -0.25323236107242        0.45484700808775
C           -0.70511691815329       -0.16521647633520        0.43713951823662
N           -3.29672429678314        2.46256377888595        0.02562598180192
C           -4.61281697159770        2.31603661961823        0.12642517411230
C           -5.49213175902107        3.47345607977250        0.13699345836641
C           -5.04271112080244        4.65657854491461        0.72739580410174
C           -5.84491040576562        5.78050017261260        0.74153576166887
C           -7.10185161603563        5.74584058024710        0.15679583016256
C           -7.54554064572075        4.58339431172535       -0.45431463258208
C           -6.75001998536543        3.45345933267473       -0.46795161386022
C           -4.95601883287557        0.93604452952743        0.14342724457437
C           -6.25977935080817        0.32785695317238        0.20388636207763
C           -6.61488441033541       -0.74776685605345       -0.62325858566868
C           -7.87884518663970       -1.29609212361244       -0.55224464079801
C           -8.81315487486694       -0.79781882247429        0.34460659666362
C           -8.47601907877199        0.27021872711168        1.16497128977596
C           -7.21853122859785        0.83155730175156        1.09665386494367
C           -2.78088901456199       -1.64114091908580       -1.10786698074912
C           -2.64301086257745       -2.99999796948758       -1.25077587663707
H           -4.66376986005008       -4.02546727573139        1.28293121460434
H           -4.91534359968470       -1.59443916354154        1.54036531271680
H           -1.00664611424138        3.10095702725471       -0.44525907151741
H            1.42790573115897        2.93707278014248       -0.42385537934097
H            2.95001903354467       -1.38900157840885       -0.30573371003670
H            5.37569049643961       -1.59161581785805       -0.32738301069942
H            6.71077833618761        2.54852066131701       -1.68833924870398
H            8.61129192759350        3.71969479842298       -2.72924932375213
H           10.91943432367841        3.02562188150756       -2.28906078190564
H           11.39873231651036        1.10065567815188       -0.81314715599835
H           11.23642615022358       -1.05744510254146        0.88315595310996
H           10.47556815101853       -2.88225438821599        2.36799815761110
H            8.09272896876104       -3.19571784927027        2.84435191705848
H            6.39080381733504       -1.72828490185795        1.83703940620622
H            5.74515469616924        2.58836979960343        0.50590106772567
H            3.32121446054788        2.80446600394323        0.53837080210211
H            1.10687926487034       -1.17821087658618        0.77919785513390
H           -1.29078425151486       -1.00972429450137        0.76333009214587
H           -4.06112294616146        4.66854385430382        1.17619029090936
H           -5.49108283893362        6.68755463254588        1.20959541843691
H           -7.72995141125071        6.62441138772540        0.16917419260893
H           -8.51611703701068        4.55782179528576       -0.92808065786392
H           -7.09288470702849        2.55975318105072       -0.96722967735195
H           -5.90635452129046       -1.12491595674232       -1.34564141637917
H           -8.13949786140451       -2.11684190574555       -1.20449850372265
H           -9.79820743442599       -1.23587746184329        0.40072164625858
H           -9.19874894070144        0.66265915777944        1.86513010221908
H           -6.95306892389870        1.65331389293800        1.74517593959897
H           -2.26597313727748       -0.96765078764873       -1.77531823562881
H           -2.01734952059166       -3.40709834594373       -2.03035685635032
