  82
       -136.83712520
 F         -1.6437272999       -5.5955008612        0.0619743574
 C         -2.8085482389       -5.2403245796       -0.5204575030
 F         -3.7522538333       -6.0133749531        0.0353288743
 F         -2.7089102131       -5.6240001767       -1.8040763789
 C         -3.0841480424       -3.7721768370       -0.3750779490
 C         -3.9311911975       -3.3137949496        0.6252150369
 C         -4.1524812492       -1.9580114046        0.7657118557
 C         -3.5276442589       -1.0574689695       -0.0937986054
 N         -3.7617105745        0.3145318464        0.0366068131
 C         -2.8294114301        1.3255204345        0.0991930788
 C         -1.3893401782        1.1447207501        0.1320862328
 C         -0.5862754602        2.1336263590       -0.4375383334
 C          0.7864627159        2.0163988900       -0.4212375512
 C          1.4023732320        0.9106025908        0.1653688193
 C          2.8643342131        0.7797054936        0.1632829879
 C          3.4700510931       -0.4554654457       -0.0618377264
 C          4.8442304600       -0.5768229984       -0.0933229024
 C          5.6506608930        0.5386878506        0.1182540577
 N          7.0447251035        0.4234881083        0.0800617369
 C          7.8992135324        1.2279090839       -0.6490070082
 C          7.6071437902        2.2681335793       -1.5195215012
 C          8.6630994235        2.8972557512       -2.1508459933
 C          9.9808810441        2.5010847034       -1.9340878829
 C         10.2759518268        1.4500724394       -1.0890297272
 C          9.2314340382        0.8020971153       -0.4430350161
 C          9.1686780865       -0.3121996553        0.4608291487
 C         10.1326599708       -1.1267890074        1.0398876020
 C          9.7247515649       -2.1209410546        1.9064336856
 C          8.3766182984       -2.2973697404        2.2098920079
 C          7.3992300198       -1.4994495945        1.6464785241
 C          7.8007715090       -0.5149013612        0.7550653592
 C          5.0544282635        1.7735171735        0.3627882537
 C          3.6799547650        1.8902572040        0.3757620962
 C          0.5968482231       -0.0620162165        0.7555129153
 C         -0.7781660333        0.0530918177        0.7477174990
 N         -3.4127021342        2.4920453943        0.1767076634
 C         -4.7577063149        2.2765022926        0.1670687488
 C         -5.6865799637        3.3964393736        0.2025248465
 C         -5.2756820471        4.5922474691        0.7897231352
 C         -6.1295726684        5.6766980013        0.8389024637
 C         -7.4019663452        5.5854899710        0.2982777794
 C         -7.8102977015        4.4065422185       -0.3036690779
 C         -6.9602276592        3.3179865297       -0.3568065819
 C         -5.0039404563        0.9169336257        0.0934733327
 C         -6.2506034667        0.1636074119        0.0603092403
 C         -6.4756530115       -0.8113366114       -0.9100419319
 C         -7.6623139660       -1.5204870037       -0.9232081006
 C         -8.6363058513       -1.2679532187        0.0281199076
 C         -8.4222147334       -0.2960733193        0.9926079027
 C         -7.2382634715        0.4153422555        1.0120652884
 C         -2.6786594775       -1.5240076455       -1.0961584835
 C         -2.4521893748       -2.8780459973       -1.2322450851
 H         -4.4150134944       -4.0140825668        1.2881630668
 H         -4.8044402142       -1.5925198549        1.5435629739
 H         -1.0650480288        2.9867446944       -0.8922597810
 H          1.3930313716        2.7779103203       -0.8886518753
 H          2.8558711736       -1.3244080724       -0.2476124009
 H          5.3021171109       -1.5321516867       -0.3021621980
 H          6.5883462444        2.5705454742       -1.7097705487
 H          8.4612920350        3.7121332529       -2.8302965564
 H         10.7785821787        3.0202688757       -2.4439111402
 H         11.2957109963        1.1316298097       -0.9340766699
 H         11.1784699612       -0.9783223777        0.8171769523
 H         10.4577669749       -2.7670607590        2.3657919953
 H          8.0886902425       -3.0727575480        2.9043617446
 H          6.3590484713       -1.6327741805        1.9032040297
 H          5.6765103691        2.6345164382        0.5566137404
 H          3.2299834729        2.8499019775        0.5828051901
 H          1.0550609894       -0.9051968032        1.2512828741
 H         -1.3751225696       -0.6980462274        1.2441678215
 H         -4.2801093482        4.6483833953        1.2019078548
 H         -5.8037540096        6.5975725871        1.3002826357
 H         -8.0709401208        6.4324416107        0.3383744359
 H         -8.7961752742        4.3360154267       -0.7399675267
 H         -7.2796814006        2.4091340717       -0.8446749550
 H         -5.7266082787       -1.0004381836       -1.6662815516
 H         -7.8275725342       -2.2708281708       -1.6821221035
 H         -9.5616545244       -1.8236893189        0.0152510362
 H         -9.1801325307       -0.0939981056        1.7347085609
 H         -7.0658769575        1.1729233342        1.7625021853
 H         -2.2012627807       -0.8209438300       -1.7611578230
 H         -1.7990073641       -3.2458934996       -2.0083762814
