82
 energy: -136.889268898591 gnorm: 0.000112537894 xtb: 6.7.1 (edcfbbe)
F           -1.45021065176834       -5.91570903929244       -0.52332595553835
C           -2.62827173315543       -5.55551263405645       -1.08380263359272
F           -3.53622771949187       -6.42527341083963       -0.61195622775278
F           -2.49871502270164       -5.82351665568417       -2.39630037385890
C           -2.97416856181482       -4.12249033580280       -0.81010273168613
C           -3.82740129061760       -3.79751978448272        0.23707883301693
C           -4.11722725912898       -2.47176752743497        0.49554232412097
C           -3.55518696618408       -1.46975921439206       -0.29208966781141
N           -3.85664268480741       -0.12469006160154       -0.04159098497148
C           -2.97006510709113        0.91825964409300        0.09912541499066
C           -1.52222165999474        0.79038122743918        0.11018250533299
C           -0.75295620134796        1.82459218217482       -0.42412814189315
C            0.62373971869448        1.74780939211575       -0.42052843165397
C            1.27622089983895        0.63888765613782        0.11865406055559
C            2.74266498915484        0.55194699712430        0.11302978684261
C            3.38473347653057       -0.65338150652470       -0.16776734326149
C            4.76259775972294       -0.73642278442835       -0.18253292363811
C            5.53416738793577        0.38722674428677        0.10173898400182
N            6.93440856077814        0.30505760519784        0.09678848133670
C            7.79036860395739        1.14576885993791       -0.58648987174127
C            7.49828643730531        2.19836380945399       -1.44289992440254
C            8.55640045883902        2.86979616454670       -2.02520296858091
C            9.87740852339613        2.50412536932366       -1.77297998814798
C           10.17367358669703        1.44267779018528       -0.94096396928433
C            9.12683082860491        0.75116834700787       -0.34428603603756
C            9.06384605527554       -0.38318932019955        0.53481779362805
C           10.02788665391368       -1.18707796950942        1.13010317541347
C            9.61621789622043       -2.20923894232336        1.96221447410911
C            8.26298273598403       -2.42605447040542        2.21541279909245
C            7.28552206310399       -1.64016863039454        1.63527970999163
C            7.69193759830632       -0.62612353773655        0.77896572782256
C            4.90223605822436        1.59366688107605        0.39180770632932
C            3.52427463887674        1.67328243905039        0.38808077448455
C            0.50384617449009       -0.38146356600997        0.67214815393619
C           -0.87414749936136       -0.30717757068262        0.67606625299802
N           -3.60255490027117        2.04829352442135        0.27787294881137
C           -4.93841962536406        1.77236842949670        0.25873079986205
C           -5.91667582610329        2.84262136865329        0.39456944443255
C           -5.55802814307501        4.00403615468577        1.07839662187419
C           -6.46088633797260        5.03997377789981        1.22222665745438
C           -7.73272401392635        4.93516999411017        0.68178791516960
C           -8.09116893795602        3.79176689985563       -0.01404443653759
C           -7.19108844024634        2.75296384892356       -0.16270591910395
C           -5.12433053191173        0.41398257093661        0.07239343687155
C           -6.33663106497967       -0.39233113562646       -0.01242573513779
C           -6.53329229765396       -1.28292772722858       -1.06664308295991
C           -7.68332394266185       -2.04854464494266       -1.12763067396703
C           -8.64951684127687       -1.93567882190625       -0.14161962514820
C           -8.46447023398158       -1.04701090153330        0.90603624243284
C           -7.31664810536163       -0.28027798320693        0.97362872636571
C           -2.69876311888629       -1.80272431064195       -1.34037781694021
C           -2.40344461477587       -3.12656322688104       -1.59559625131536
H           -4.26209842213422       -4.57640710565287        0.84383016617866
H           -4.77477528184826       -2.21058994189361        1.30969980968507
H           -1.25786086976427        2.68124934646453       -0.84359727361539
H            1.20297221086305        2.54611097110999       -0.85998916533373
H            2.79794670184298       -1.52819404353630       -0.40601136713484
H            5.25004088597626       -1.66817272486145       -0.42869679991625
H            6.47797400482420        2.47871418173068       -1.65708110837615
H            8.35522450928539        3.69432965288011       -2.69376127144519
H           10.67734360766851        3.05601536775724       -2.24474819040667
H           11.19717690276382        1.15047194304192       -0.75836792285956
H           11.07732540964337       -1.01026800180668        0.94658109235782
H           10.35032206972663       -2.84696636697851        2.43279826512702
H            7.97192949639528       -3.22425718704186        2.88294227203939
H            6.24069829923062       -1.80551280615567        1.85096509784912
H            5.49768848334539        2.46146883460400        0.63374274645549
H            3.04575060592557        2.60988643919502        0.63266914675088
H            0.98956244055977       -1.23065739817457        1.12964466181745
H           -1.44612817687394       -1.09613451106422        1.14203415223359
H           -4.56295920566254        4.07405242529146        1.49095779064063
H           -6.17307410970105        5.93340177428218        1.75778034667192
H           -8.44014780619837        5.74363065642476        0.79663261866588
H           -9.07705041438396        3.71045176321270       -0.44924556599087
H           -7.47289270264695        1.87338936663071       -0.72216503663658
H           -5.79092516190118       -1.36348675249746       -1.84797468001637
H           -7.82562555509957       -2.73389809864881       -1.95037844513354
H           -9.54596639658845       -2.53568877896556       -0.19095107777374
H           -9.21646066999512       -0.95317603520699        1.67566346535300
H           -7.16802057597087        0.41224454137373        1.78944001761313
H           -2.26901145172923       -1.02282894236673       -1.94959529816874
H           -1.74380259951793       -3.39076853352983       -2.40750648294271
