66
 energy: -110.604515181601 gnorm: 0.000079405854 xtb: 6.7.1 (edcfbbe)
O           -0.26389239422763        4.18098370134236       -1.35808608494320
S           -0.32625865091945        3.50027982364667       -0.07502126393451
O           -0.47594853339570        4.34919684784329        1.09485447147315
C            1.10565932256931        2.47401723088324        0.09783136213251
C            1.33244062189386        1.83470584824990        1.32112082247574
C            2.34046303605058        0.90876969879414        1.42865414249367
C            3.13060917240789        0.60778695643020        0.30782989887011
N            4.14233192765400       -0.38619046863570        0.40364474695773
C            3.78656672744407       -1.70944226707004        0.43040954075622
C            2.45704790056233       -2.14617756969478        0.32864823441990
C            2.15504740471235       -3.48300064869589        0.36618655609677
C            3.17813476357666       -4.44967081203930        0.50656866325061
C            4.49227721710667       -4.05558048219553        0.59161572616073
C            4.82412982702938       -2.70293902043060        0.55067137507875
O            6.12456297947968       -2.35361366267434        0.61482003431054
C            6.46270834802303       -1.04967730602507        0.56730670588229
C            7.81165272348454       -0.70583757807261        0.63198487996482
C            8.19195888022634        0.61455427272708        0.60402139122725
C            7.21438294885908        1.63325997344473        0.52057371681000
C            5.88096718165311        1.31908608375151        0.45757358570614
C            5.46074777559885       -0.01868857654188        0.46540286426741
C            2.91139245939842        1.26350273829857       -0.91402893549299
C            1.89787394181701        2.18465145738481       -1.01674094783871
C           -1.68800566142988        2.33444825480238       -0.10064263994892
C           -2.80164614777960        2.55536954675293        0.70323224532620
C           -3.84279611966292        1.64738147014083        0.73180284575204
C           -3.73016028247089        0.50332070157964       -0.05040081351781
C           -2.59425699266918        0.28467522203554       -0.87617458801416
C           -1.56587443940206        1.21489154426721       -0.89770469179489
C           -2.81342513022858       -0.96422504303834       -1.54817004099871
C           -2.05843602813467       -1.71475486529711       -2.44228471790722
C           -2.56701834553603       -2.91949675149284       -2.88526072304929
C           -3.80477309271094       -3.38264040180572       -2.44163200669382
C           -4.57188908189986       -2.65531816114271       -1.55078501097575
C           -4.07373104570813       -1.43569912330973       -1.11360378122170
N           -4.61233735953443       -0.53839825726466       -0.21098712500101
C           -5.85666451563729       -0.67253436328680        0.43268168211789
C           -5.93971490842903       -0.58072875004103        1.81852034645085
C           -7.16589446395478       -0.71079904114831        2.44546288900751
C           -8.31039818812664       -0.94326350134249        1.70009365211305
C           -8.22704500127892       -1.03974182296978        0.32050678910209
C           -7.00688519889626       -0.90086026249042       -0.31621688457532
H            0.70621064966024        2.09228123949181        2.16033747424917
H            2.53251507933363        0.40471643963312        2.36358940160172
H            1.67450834557467       -1.41210500789253        0.21780999993777
H            1.12876188830402       -3.80308423130614        0.28458007491477
H            2.92311795473126       -5.49626826014327        0.53805360857434
H            5.29295373680546       -4.77223940959110        0.68673956498921
H            8.53605460759514       -1.50174667760317        0.70595895873259
H            9.23557736957166        0.87923883638720        0.65184188362466
H            7.52359756808720        2.66600125658252        0.51100588823019
H            5.13580446940955        2.09723856580120        0.40258774019877
H            3.53318585864003        1.02675164687208       -1.76398824004546
H            1.69005459978707        2.70488445332101       -1.93868694649151
H           -2.82467056479760        3.45503329601514        1.29835127792563
H           -4.71646268717344        1.82928592843727        1.33797176632055
H           -0.69265152969445        1.08227393433289       -1.51656259008228
H           -1.09498226856196       -1.35942804651771       -2.77503520299776
H           -1.99798561608030       -3.51828150770768       -3.58086927396440
H           -4.17118559888549       -4.33376447250934       -2.79900848094103
H           -5.52122214141719       -3.02970030935569       -1.19966338657779
H           -5.04215441420123       -0.41819808954373        2.39631589786738
H           -7.22533360148978       -0.63781250920359        3.52133074804168
H           -9.26518595042024       -1.04804737711207        2.19304895091815
H           -9.11735739105793       -1.21681827309637       -0.26454446300096
H           -6.93988549956051       -0.95608239277079       -1.39252699949921
