66
 energy: -110.698672294012 gnorm: 0.000054299724 xtb: 6.7.1 (edcfbbe)
O           -0.27308309603457        4.17342824125901       -1.31497173348309
S           -0.35391123178594        3.48551639757908       -0.04189745563992
O           -0.46643018924924        4.32364097827570        1.13455496637724
C            1.08116828872735        2.41679370921515        0.12047741899675
C            1.17295812529520        1.61601765767304        1.24493767038954
C            2.20777342554840        0.70624087653192        1.34701626946832
C            3.14284652897191        0.59547601427866        0.31659471572645
N            4.16395437204538       -0.37182527219521        0.40039151439100
C            3.84028565899667       -1.73382482264426        0.41920588673449
C            2.53300694196870       -2.18936542779288        0.29664565837170
C            2.24801582640092       -3.54661764507707        0.31198572832092
C            3.26461726918307       -4.47187215401128        0.43926163093591
C            4.57816699843690       -4.03482049856634        0.53079500299848
C            4.86703415775564       -2.68232266006502        0.51376380129396
O            6.19474591198741       -2.32956790238646        0.57719859351513
C            6.49723272737582       -0.98894095264249        0.52570823198362
C            7.83662646188476       -0.64870751194691        0.57589296587794
C            8.22169043879439        0.68405564504762        0.56090388532852
C            7.25637649905874        1.66967887265873        0.51136859489128
C            5.91188830108113        1.33314000359091        0.45879877367144
C            5.51085306862519        0.00298170181704        0.44359978867160
C            3.04890148572955        1.42422232962316       -0.80067611497123
C            2.01222264182319        2.33525434641336       -0.89729399047888
C           -1.71492388759017        2.32283247200733       -0.06713792213888
C           -2.85337682324507        2.57567591932322        0.68952805998180
C           -3.90264268552295        1.67771959508672        0.70222172674914
C           -3.77068832430159        0.51174883084935       -0.04587196994374
C           -2.60932096036501        0.26452301399871       -0.82695132452067
C           -1.57433893488587        1.18744458757999       -0.83783766037465
C           -2.81339625054226       -1.00186201773086       -1.47064947168271
C           -2.03461854638292       -1.78092319162449       -2.31881938532679
C           -2.53571955659324       -2.99561923826667       -2.74126071041002
C           -3.79001271393925       -3.43983665580329       -2.32358120386254
C           -4.58072547446186       -2.68397250709742       -1.47943540854255
C           -4.08891728919481       -1.45453852340368       -1.06223330064329
N           -4.65105848627754       -0.52748397296984       -0.20488469498959
C           -5.91478233011618       -0.64061497960754        0.40800631024736
C           -6.03135970043669       -0.53213134623121        1.78972602427294
C           -7.27501200451524       -0.64195131795552        2.38587723088689
C           -8.40183467374176       -0.87013320572877        1.61295621959033
C           -8.28432119179826       -0.98273757100995        0.23711629325658
C           -7.04617417223973       -0.86539406526611       -0.36900952556300
H            0.43653480834811        1.71867696964846        2.02635770476464
H            2.29584965644122        0.07083585301145        2.21513739214324
H            1.72875727595129       -1.48000197116736        0.18299993959691
H            1.22239005790652       -3.86929418176241        0.21927380643481
H            3.04954303626083       -5.52863275154068        0.45659709514839
H            5.39860084215184       -4.73048830343644        0.61177345778567
H            8.56340615875864       -1.44382995874700        0.63268362552903
H            9.26893517571611        0.93954922391579        0.59810451661222
H            7.53820485355839        2.71141945981214        0.51755672610296
H            5.16799112131797        2.11390265212223        0.43855496556085
H            3.77435436012911        1.33631890751822       -1.59510146446590
H            1.89787486136359        2.97581623604206       -1.75812303385291
H           -2.88793239850733        3.48789830891791        1.26434467979331
H           -4.79554833819309        1.87928894864554        1.27266617648160
H           -0.68381545230939        1.03439845591694       -1.42633990827075
H           -1.05914360019207       -1.44090672679433       -2.63170022091303
H           -1.94803711636371       -3.61809339560748       -3.39939907963105
H           -4.14933390459491       -4.39960089658496       -2.66436077047193
H           -5.54341421458865       -3.04237198737615       -1.14876665649319
H           -5.14737818666471       -0.37201254415657        2.38872222341013
H           -7.36201516421125       -0.55661350580637        3.45885573979207
H           -9.37012419403746       -0.95910734611245        2.08200776700445
H           -9.16103870250738       -1.15714832676004       -0.36872598438022
H           -6.95109956880325       -0.93564800575408       -1.44229226800336
