66
 energy: -110.698797411790 gnorm: 0.000091011011 xtb: 6.7.1 (edcfbbe)
O           -0.01362333317839        3.05102512454385       -3.32205010032750
S           -0.02170407371699        3.10679196831419       -1.87425733647078
O            0.04385851229910        4.42115324342049       -1.26799256487637
C            1.35795543164188        2.13093398766782       -1.26537359455606
C            1.82349633045797        2.34794153934589        0.01837011210173
C            2.85198291366526        1.56625564689404        0.51086237014152
C            3.41096895363771        0.56746390430725       -0.28679035567020
N            4.45959689051309       -0.23056927241165        0.21214975232938
C            4.29762808315083       -1.61426472275826        0.34656914896158
C            3.09093231661719       -2.25040330920945        0.08126271482419
C            2.96258360282804       -3.62332106722301        0.23076261264127
C            4.03298367210076       -4.38235297728088        0.65940043026757
C            5.23481300668798       -3.75845748748127        0.96076367077478
C            5.36659332593997       -2.38942100374465        0.81511766558525
O            6.57826117754464       -1.84182322972398        1.16565328392010
C            6.72064452964503       -0.48072927340865        1.03105383258582
C            7.94907454041671        0.05429368497842        1.37355176615140
C            8.18329959547811        1.41472317251923        1.23653161821653
C            7.18632384964477        2.22817207076619        0.73659710874728
C            5.95247468681339        1.69611247902797        0.39278735899624
C            5.69057062685574        0.34097403231712        0.55419257005147
C            2.93212095519490        0.36223004331360       -1.58084034071628
C            1.90064963526138        1.14372023169867       -2.06686226436765
C           -1.46196660387650        2.24431731072160       -1.26129442481097
C           -2.05216788163391        2.67351953749788       -0.07694691260359
C           -3.14002586236763        2.00583465038484        0.44774855982738
C           -3.61129604480333        0.88979575932090       -0.23774196344685
C           -3.01356365846018        0.46436750585068       -1.45513585846556
C           -1.92154966436916        1.15073025247471       -1.96505139504374
C           -3.76962096358326       -0.67055367253185       -1.90355835919268
C           -3.66840672524963       -1.51433305198392       -3.00369875565297
C           -4.57516924742008       -2.54768924633773       -3.12659429557723
C           -5.56456652942278       -2.75324107663693       -2.16555037071760
C           -5.68487385005616       -1.92798876952891       -1.06398832230714
C           -4.78858221405533       -0.87452128426244       -0.94494575833990
N           -4.67544677960050        0.07556552767606        0.05257834520304
C           -5.52368751165799        0.19454762865913        1.17144127526454
C           -4.98572579913635        0.22534955376571        2.45370355151004
C           -5.82347512642476        0.34623529939906        3.54813067120065
C           -7.19518588456664        0.42741194698106        3.37189548429258
C           -7.73053295157561        0.39212067814979        2.09462806481559
C           -6.90038760863063        0.28069626320881        0.99341856696669
H            1.38121892922650        3.13327712319840        0.61033786918883
H            3.22503151126923        1.72013949486208        1.51207127378099
H            2.24118343516563       -1.66843120023925       -0.23856245432375
H            2.01461365987488       -4.09007194562679        0.01140349627302
H            3.94145431658189       -5.45102375017110        0.77306463180383
H            6.08537461619140       -4.31790379743619        1.31733512531917
H            8.71212891884958       -0.61361658885780        1.74146745440233
H            9.14344901350069        1.82331473460580        1.50930914135034
H            7.35844817706454        3.28537805112556        0.60489540451394
H            5.19030568178558        2.34194487032305       -0.01362365380039
H            3.37571627955465       -0.40376656835941       -2.19867320436104
H            1.52377044704348        1.01978535751091       -3.06972945819567
H           -1.64998136814008        3.55195978467966        0.40209941820578
H           -3.61517202303041        2.34748400900558        1.35369243875232
H           -1.44764978836875        0.87151573215929       -2.89201105364749
H           -2.89490460148605       -1.36051449847084       -3.74052522494244
H           -4.51737692386842       -3.21359736092064       -3.97470011698099
H           -6.25153990508026       -3.57802854806885       -2.28447695070714
H           -6.44554230265203       -2.10222119753625       -0.31862153998398
H           -3.91722430734227        0.14401076385786        2.58616993546278
H           -5.40280091239954        0.36999035604819        4.54240014071847
H           -7.84595493089165        0.51822652941144        4.22848279392595
H           -8.79893393416090        0.45896171600196        1.95293529653039
H           -7.31086531130465        0.27057233418433       -0.00523832552274
