66
 energy: -110.604957162130 gnorm: 0.000068470965 xtb: 6.7.1 (edcfbbe)
O           -0.29303887299634        4.08453553737017       -1.99205033370833
S           -0.31795878267383        3.61091477987875       -0.61780951593004
O           -0.43393735936957        4.62640920408571        0.41483826754011
C            1.11089083580598        2.60827258440383       -0.32954632543570
C            1.44306349835257        2.25643895539284        0.98166192340157
C            2.40433965442883        1.30329010510317        1.21166103437194
C            3.03025214398148        0.67247236270448        0.12357813426366
N            3.97131085315011       -0.36779667833913        0.34555589864943
C            3.61771138800422       -1.66105249566706        0.06443447832129
C            2.32121851042822       -2.03069558774364       -0.32904961717516
C            2.02727912560442       -3.33532539919997       -0.62815468680794
C            3.02417836133473       -4.33562439007822       -0.54966863867336
C            4.29857050719711       -4.00972458086866       -0.14821402227362
C            4.61766607193880       -2.69317154433392        0.17392517844418
O            5.86968644677429       -2.41160494827523        0.58773491410303
C            6.19132569767882       -1.14179911080227        0.90624947884065
C            7.49166300366781       -0.87003797858900        1.33013110532764
C            7.86359760603904        0.41567898728445        1.64112452158313
C            6.93446910311643        1.47267299804641        1.51714346319849
C            5.65235217121637        1.23026997587625        1.09156548458767
C            5.23493798494051       -0.07261364285166        0.78912912196414
C            2.70581010036335        1.03760695815392       -1.19143131988190
C            1.75259204745164        1.99974933483745       -1.41421737538710
C           -1.65344121843943        2.43758584968303       -0.42395857019199
C           -2.56916715773472        2.59165766758592        0.61377120112217
C           -3.54715410179460        1.64381930209508        0.83937954722337
C           -3.57966639046480        0.52945318071734        0.00676709888749
C           -2.62077629427109        0.35644934407223       -1.02752531312281
C           -1.65603478112536        1.32658613600246       -1.24556867355955
C           -2.90333785792191       -0.91289430380256       -1.63615935282797
C           -2.32233375459787       -1.62245487347649       -2.68028411921088
C           -2.86566032387644       -2.84241880960352       -3.03138202005603
C           -3.98232703238515       -3.34766220754836       -2.36720856533600
C           -4.57500773542802       -2.66157095663626       -1.32415010873501
C           -4.01787908476213       -1.44642256786694       -0.94863984410704
N           -4.41334522887405       -0.56388735625415        0.03829173381781
C           -5.49646277445314       -0.74955163384251        0.91677973423068
C           -5.60074820215282       -1.92316714631164        1.65722156601625
C           -6.67246965896283       -2.10524463741931        2.51247912014903
C           -7.63744713274020       -1.11975489350308        2.64316054285943
C           -7.53018246795551        0.05180053108990        1.91122881024275
C           -6.46762654047081        0.23868960596344        1.04557735873891
H            0.93043215211652        2.75183136779138        1.79091771565333
H            2.67107920054581        1.01649888954558        2.21748143743395
H            1.55791218752772       -1.27061521034656       -0.38645634481898
H            1.02603458687388       -3.60450735299325       -0.92427318288224
H            2.77860084871471       -5.35531244131930       -0.79707585890175
H            5.07331246295681       -4.75579763007633       -0.06564422659896
H            8.18488799425596       -1.69321866631432        1.40295123276458
H            8.86807446915205        0.62373454949880        1.97176011884697
H            7.23987841352822        2.47919059336464        1.75342330073955
H            4.94875299445764        2.04065983062119        0.98319276525037
H            3.20968018616435        0.55569555324183       -2.01578928709787
H            1.48232565738715        2.31440891601671       -2.40988079086850
H           -2.48957313579258        3.47445332156756        1.22896954607281
H           -4.25438863867969        1.76193264039681        1.64551693548866
H           -0.91982274805630        1.23348632685336       -2.02760833087500
H           -1.46809970318743       -1.22057678882954       -3.20382201191195
H           -2.42895101988224       -3.41176053927390       -3.83844324530097
H           -4.39540799985553       -4.29649078481935       -2.67650904374725
H           -5.44800539937910       -3.05436184702675       -0.82599670693462
H           -4.83573137009955       -2.67974270127804        1.56708160445520
H           -6.74997198787898       -3.01787581804582        3.08468362739502
H           -8.47073176481029       -1.26386767107642        3.31430023498878
H           -8.28133756674993        0.82179662058849        2.00777729683952
H           -6.38933668448094        1.14199449305207        0.45897196866107
