  55
  -90.7411063104000       0.338954512812958      !
 C         -2.1211595208        2.6329372269        2.9172542983
 C         -1.6170489488        1.4028426753        3.3062388186
 C         -1.7751565941        0.2948916306        2.4959171892
 C         -2.4357749391        0.3977115852        1.2732970534
 C         -2.9626603994        1.6437910295        0.8996120734
 C         -2.7989715936        2.7508768109        1.7160469569
 O         -3.6585086880        1.8177080189       -0.2632491168
 C         -3.7669915826        0.7434659064       -1.1018864893
 C         -4.4126483482        0.9485458091       -2.3102788116
 C         -4.5460567180       -0.0925204016       -3.2127740819
 C         -4.0247632848       -1.3376927093       -2.9060820070
 C         -3.3773950833       -1.5492507642       -1.7020697272
 C         -3.2442937051       -0.5178647510       -0.7767713249
 N         -2.6188056010       -0.7089041978        0.4533248595
 C         -1.7231403836       -1.7984296394        0.6073210609
 C         -2.1591767964       -3.0873263542        0.8818235568
 C         -1.2418121631       -4.1211981669        0.9703895289
 C          0.1110700924       -3.8854441469        0.7818401728
 C          0.5820573634       -2.6033992752        0.5024516830
 N          1.8718392871       -2.3264453400        0.3156018547
 C          2.2974760902       -1.0925569856        0.0710039837
 C          3.6861048332       -0.8246693509       -0.1469860890
 C          4.6042573529       -1.8842397029       -0.0712563568
 C          5.9410170782       -1.6722727192       -0.2866159471
 C          6.3941631039       -0.3870072090       -0.5864749698
 C          5.5102366335        0.6624128346       -0.6606970263
 C          4.1357776229        0.4840905050       -0.4420798369
 C          3.1834664170        1.5681056572       -0.5049675803
 C          3.5482557437        2.8932852518       -0.7851835130
 C          2.6163228352        3.9021285631       -0.8335179837
 C          1.2677403002        3.6306361039       -0.5975103573
 C          0.8747763876        2.3473285356       -0.3223298701
 C          1.8125753421        1.3026511365       -0.2747599064
 C          1.3645942460       -0.0235108206        0.0037094360
 N          0.0726972304       -0.2802400545        0.1936510917
 C         -0.3585848863       -1.5141115855        0.4238290961
 H         -1.9941751568        3.4988790027        3.5475416340
 H         -1.0970739788        1.3023561984        4.2462456794
 H         -1.3869541321       -0.6638017371        2.8028483622
 H         -3.2100890348        3.6929596915        1.3900713506
 H         -4.7944091608        1.9339362535       -2.5247603418
 H         -5.0488852361        0.0737835832       -4.1522931878
 H         -4.1163702138       -2.1525884799       -3.6072807262
 H         -2.9604804884       -2.5177026518       -1.4749846949
 H         -3.2130464814       -3.2653908920        1.0321091922
 H         -1.5824800808       -5.1208936357        1.1912181226
 H          0.8299688546       -4.6849913850        0.8633133146
 H          4.2206097603       -2.8666159927        0.1582141533
 H          6.6413922155       -2.4921745765       -0.2283645446
 H          7.4465313392       -0.2162288393       -0.7606750353
 H          5.8946712234        1.6429365116       -0.8929227179
 H          4.5820940239        3.1389445516       -0.9695974538
 H          2.9295808446        4.9122230669       -1.0538234266
 H          0.5412654468        4.4288048130       -0.6320625188
 H         -0.1605332459        2.1084217775       -0.1307201877
  55
  -90.7406703011000       0.213680760056982      !
 C         -2.5934106965        2.4126631986        3.2967021074
 C         -2.0719008031        1.1746998572        3.6342750773
 C         -2.0669579855        0.1439053794        2.7131547507
 C         -2.5852313809        0.3339399933        1.4350995656
 C         -3.1171113339        1.5896910761        1.1042967917
 C         -3.1156876052        2.6191028459        2.0311618856
 O         -3.6559563287        1.8492416729       -0.1248479939
 C         -3.5860420122        0.8601755639       -1.0667367779
 C         -4.0544577785        1.1559786286       -2.3363263378
 C         -4.0089514488        0.1970996988       -3.3342320275
 C         -3.4883301289       -1.0567651655       -3.0614271668
 C         -3.0163254640       -1.3584318634       -1.7967983041
 C         -3.0610244228       -0.4093165532       -0.7794271141
 N         -2.6210854663       -0.6995365473        0.5067424210
 C         -1.7211129865       -1.7849995585        0.6856306928
 C         -2.1505599441       -3.0547504607        1.0417721042
 C         -1.2277914162       -4.0777466144        1.1860838037
 C          0.1224496483       -3.8475041733        0.9733654754
 C          0.5853507983       -2.5842109571        0.6089020955
 N          1.8707079351       -2.3144255341        0.3878905955
 C          2.2875784135       -1.1013790561        0.0444476662
 C          3.6729878412       -0.8410564014       -0.1993121063
 C          4.5979168177       -1.8881810766       -0.0583747608
 C          5.9334052611       -1.6811545134       -0.2856033439
 C          6.3789578645       -0.4133071220       -0.6616378498
 C          5.4879496050        0.6229589413       -0.8041325043
 C          4.1138793046        0.4485484509       -0.5798454634
 C          3.1534628788        1.5179564993       -0.7205901735
 C          3.5075974157        2.8217834805       -1.0980265001
 C          2.5672877790        3.8163228056       -1.2216009907
 C          1.2203342657        3.5513086671       -0.9693362410
 C          0.8379685388        2.2887586375       -0.5996169317
 C          1.7847423218        1.2590113378       -0.4714616623
 C          1.3472976513       -0.0454656511       -0.0923398161
 N          0.0591226201       -0.2931815089        0.1299187495
 C         -0.3620016669       -1.5064450898        0.4638514149
 H         -2.5960582024        3.2176444757        4.0145239137
 H         -1.6658238606        1.0072470156        4.6197626375
 H         -1.6610440593       -0.8209025962        2.9754260249
 H         -3.5261976072        3.5724788495        1.7389327051
 H         -4.4443824428        2.1442317945       -2.5210166962
 H         -4.3744362318        0.4338983263       -4.3209523153
 H         -3.4452394161       -1.8069096138       -3.8357818421
 H         -2.6039370008       -2.3330363662       -1.5867316166
 H         -3.2033807645       -3.2271081292        1.2041156454
 H         -1.5621961579       -5.0643426512        1.4669804077
 H          0.8446142980       -4.6398965942        1.0890709920
 H          4.2206614883       -2.8566151766        0.2327141245
 H          6.6392249937       -2.4909862339       -0.1754310544
 H          7.4308491541       -0.2459146225       -0.8418324511
 H          5.8661625379        1.5897702275       -1.0962358315
 H          4.5394714488        3.0617237845       -1.3001857554
 H          2.8723390082        4.8100252823       -1.5155858773
 H          0.4871254590        4.3380809944       -1.0666846687
 H         -0.1960914155        2.0534657672       -0.3968906470
  55
  -90.7403909271000       0.158991541093623      !
 C         -1.8393178738        2.8088254508        2.5379235543
 C         -1.2989418685        1.6045782983        2.9574817825
 C         -1.5551988009        0.4406841009        2.2577394831
 C         -2.3468176535        0.4602976150        1.1092907257
 C         -2.9275965590        1.6787880670        0.7219921492
 C         -2.6663114004        2.8417543076        1.4277847727
 O         -3.7777684829        1.7692212559       -0.3431233347
 C         -3.9989907594        0.6367072155       -1.0753396247
 C         -4.8391749405        0.7530423109       -2.1707958756
 C         -5.0856148751       -0.3432111119       -2.9789391786
 C         -4.4727954880       -1.5516100421       -2.6968521609
 C         -3.6351227940       -1.6754599148       -1.6028459468
 C         -3.3983661378       -0.5927147448       -0.7598955246
 N         -2.5966716422       -0.6928577094        0.3767112513
 C         -1.7000080163       -1.7795704115        0.5122427454
 C         -2.1398447149       -3.0728457148        0.7699185516
 C         -1.2317925492       -4.1166385483        0.8202959851
 C          0.1204254984       -3.8895367266        0.6178053125
 C          0.5994347566       -2.6033433885        0.3724887856
 N          1.8939241027       -2.3330506214        0.2051846568
 C          2.3343917578       -1.0915653181        0.0386010436
 C          3.7309197821       -0.8245753341       -0.1258700861
 C          4.6363958379       -1.8973918189       -0.1074484358
 C          5.9810061041       -1.6849798431       -0.2669733625
 C          6.4552958088       -0.3854476389       -0.4491156831
 C          5.5836696574        0.6767050977       -0.4669616309
 C          4.2013804647        0.4976475727       -0.3055970253
 C          3.2616066111        1.5945356624       -0.3119082946
 C          3.6489392684        2.9345485167       -0.4614121215
 C          2.7290716813        3.9556059595       -0.4542761780
 C          1.3699143622        3.6808977668       -0.2953541308
 C          0.9547146948        2.3832432298       -0.1504779466
 C          1.8805849710        1.3270007241       -0.1558316490
 C          1.4127376848       -0.0110677877        0.0106044519
 N          0.1143358998       -0.2666520707        0.1529938993
 C         -0.3319086232       -1.5046008672        0.3292096024
 H         -1.6295719851        3.7192920797        3.0767462859
 H         -0.6709665754        1.5677394686        3.8338741730
 H         -1.1451464960       -0.4967375695        2.5984549763
 H         -3.1202310857        3.7587498121        1.0882986289
 H         -5.2792372357        1.7159684156       -2.3754566938
 H         -5.7421263484       -0.2469532587       -3.8290343728
 H         -4.6417523106       -2.4079771698       -3.3313090722
 H         -3.1494008709       -2.6172607233       -1.4046144368
 H         -3.1908067031       -3.2460120557        0.9451896782
 H         -1.5792065356       -5.1173515798        1.0257630107
 H          0.8337260047       -4.6959115725        0.6768592510
 H          4.2369972308       -2.8902108438        0.0330389842
 H          6.6714671443       -2.5153471323       -0.2545910141
 H          7.5141380051       -0.2136614863       -0.5772250534
 H          5.9839531414        1.6678494266       -0.6102165202
 H          4.6914158709        3.1827620905       -0.5837113042
 H          3.0602144142        4.9773978354       -0.5706946181
 H          0.6520027736        4.4876138174       -0.2855868055
 H         -0.0893163992        2.1424095775       -0.0209361384
  55
  -90.7403359888000       0.150012042540935      !
 C         -2.6298063178        2.3684929585        3.3566760120
 C         -2.1579145998        1.1123402982        3.6996670727
 C         -2.1489488524        0.0908483872        2.7682545633
 C         -2.6139887284        0.3086356977        1.4743041624
 C         -3.0952531261        1.5829175470        1.1378396681
 C         -3.0980865223        2.6028591551        2.0752845261
 O         -3.5758699097        1.8718653135       -0.1085481988
 C         -3.4757270693        0.8990066583       -1.0637750778
 C         -3.8600756774        1.2296410938       -2.3528682749
 C         -3.7825155577        0.2869196923       -3.3635586880
 C         -3.3163515125       -0.9867484115       -3.0838674831
 C         -2.9272904839       -1.3225260391       -1.8002387755
 C         -3.0012932469       -0.3884103689       -0.7709670755
 N         -2.6391568874       -0.7145489977        0.5324266705
 C         -1.7394998595       -1.8009912976        0.7182811371
 C         -2.1608599779       -3.0651270083        1.1006411440
 C         -1.2314311107       -4.0813756990        1.2535572825
 C          0.1159641502       -3.8491613435        1.0253836888
 C          0.5708762914       -2.5899766810        0.6372427182
 N          1.8529552066       -2.3158790036        0.4022637071
 C          2.2594263938       -1.1060307718        0.0350575416
 C          3.6418405357       -0.8386139172       -0.2182915008
 C          4.5752824647       -1.8767680000       -0.0680669346
 C          5.9085306239       -1.6621324058       -0.3017898102
 C          6.3432369167       -0.3953768639       -0.6934552251
 C          5.4437326386        0.6321655924       -0.8457769281
 C          4.0717176364        0.4496720785       -0.6161388404
 C          3.1028197617        1.5098825582       -0.7686963293
 C          3.4453691971        2.8116283306       -1.1636104807
 C          2.4964378205        3.7964967487       -1.2985999357
 C          1.1520414342        3.5234363619       -1.0414942365
 C          0.7810707429        2.2627443024       -0.6544569601
 C          1.7368968481        1.2431850516       -0.5135231009
 C          1.3113389884       -0.0590023803       -0.1140413959
 N          0.0261954489       -0.3117575568        0.1187489600
 C         -0.3838462545       -1.5208890955        0.4798514061
 H         -2.6336321765        3.1667933775        4.0819776163
 H         -1.7925463008        0.9236387234        4.6971968339
 H         -1.7773435086       -0.8867891491        3.0329991606
 H         -3.4670845811        3.5714736599        1.7779650418
 H         -4.2101766161        2.2320719730       -2.5419630981
 H         -4.0814939972        0.5511283274       -4.3656255601
 H         -3.2506823747       -1.7249296028       -3.8679571056
 H         -2.5567517307       -2.3124153165       -1.5835275273
 H         -3.2113105987       -3.2394865120        1.2753879385
 H         -1.5586569336       -5.0648682717        1.5532926486
 H          0.8419707814       -4.6375568819        1.1449408712
 H          4.2066588431       -2.8444158021        0.2363807711
 H          6.6207775587       -2.4653138476       -0.1844628669
 H          7.3933668609       -0.2217868067       -0.8780727747
 H          5.8137111787        1.5985872616       -1.1494594679
 H          4.4749183283        3.0577414898       -1.3701367650
 H          2.7926166091        4.7889233174       -1.6056869225
 H          0.4119113213        4.3024260978       -1.1484784216
 H         -0.2507656672        2.0212397100       -0.4480691261
  55
  -90.7397483891000       8.055342292108998E-002 !
 C         -1.9840681367        2.9056490971        2.4591049641
 C         -1.4719099052        1.7209389538        2.9618522552
 C         -1.6818785875        0.5292509862        2.2943436151
 C         -2.4011898337        0.5011375942        1.0996245522
 C         -2.9497954941        1.7021926747        0.6214014926
 C         -2.7327394217        2.8932828146        1.2940320642
 O         -3.7224847453        1.7484711054       -0.5037853704
 C         -3.9002457538        0.5849041211       -1.1982352089
 C         -4.6556452805        0.6550531689       -2.3577206157
 C         -4.8594162622       -0.4780314764       -3.1259142746
 C         -4.2923984798       -1.6788974758       -2.7366892494
 C         -3.5373915668       -1.7559894914       -1.5801290782
 C         -3.3396877522       -0.6327600402       -0.7813823703
 N         -2.6131371836       -0.6838147974        0.4087957801
 C         -1.7115374547       -1.7558778621        0.6204903187
 C         -2.1490862745       -3.0398634618        0.9215882867
 C         -1.2385596667       -4.0794564045        1.0091546953
 C          0.1095865270       -3.8595296714        0.7757556105
 C          0.5844081325       -2.5822710323        0.4801471016
 N          1.8699192266       -2.3244604519        0.2413343110
 C          2.3104955324       -1.0876487377        0.0452043984
 C          3.6882366571       -0.8381394847       -0.2530238430
 C          4.5598320283       -1.9265280532       -0.4151137242
 C          5.8750685213       -1.7291783529       -0.7471820811
 C          6.3533920394       -0.4303847920       -0.9239451983
 C          5.5176401503        0.6473381099       -0.7547647069
 C          4.1679699372        0.4832711422       -0.4093637377
 C          3.2661262379        1.5948982897       -0.2182288150
 C          3.6879334264        2.9322095834       -0.2297167529
 C          2.8024472641        3.9677406145       -0.0486238404
 C          1.4446027327        3.7095731236        0.1443870842
 C          0.9979106052        2.4143716888        0.1667639878
 C          1.8909121902        1.3429337128        0.0017396608
 C          1.4039324319        0.0048112563        0.0999553087
 N          0.1066892957       -0.2421805039        0.2728054756
 C         -0.3430776366       -1.4795710839        0.4428346777
 H         -1.8094386402        3.8375358404        2.9732121320
 H         -0.9023266220        1.7224039452        3.8779884649
 H         -1.2922365510       -0.3938173386        2.6937121953
 H         -3.1560327636        3.7966627016        0.8844853230
 H         -5.0651025416        1.6110333446       -2.6423565437
 H         -5.4485270914       -0.4171288170       -4.0271624688
 H         -4.4316115644       -2.5654611270       -3.3356228888
 H         -3.0856250409       -2.6930562779       -1.2974319632
 H         -3.2006221313       -3.2091049449        1.0973419109
 H         -1.5822431842       -5.0718851105        1.2564934224
 H          0.8233650290       -4.6649617894        0.8416400955
 H          4.1561575084       -2.9187157125       -0.2832817387
 H          6.5374894673       -2.5714072615       -0.8809502516
 H          7.3861151012       -0.2716329067       -1.1982188392
 H          5.9161488371        1.6381078171       -0.9059761048
 H          4.7319096801        3.1644816416       -0.3696835648
 H          3.1597691021        4.9871295893       -0.0536396768
 H          0.7523079288        4.5266772252        0.2829000352
 H         -0.0441505133        2.1870021307        0.3290561349
  55
  -90.7394348379000       5.780772057441179E-002 !
 C         -1.7291110529        2.8864304189        2.3372874283
 C         -1.1040853225        1.7094998986        2.7111166581
 C         -1.3919319215        0.5246863649        2.0589250501
 C         -2.2981630205        0.4981955403        0.9977632932
 C         -2.9756495382        1.6857192858        0.6755788544
 C         -2.6831209506        2.8683495064        1.3331991001
 O         -3.9631190956        1.7228765920       -0.2680142869
 C         -4.2251699622        0.5721355594       -0.9564749367
 C         -5.2291736306        0.6291898666       -1.9092390073
 C         -5.5215426726       -0.4820259089       -2.6810454637
 C         -4.7826688094       -1.6400284206       -2.5152357164
 C         -3.7841918593       -1.7060950990       -1.5596950854
 C         -3.5087157550       -0.6162178192       -0.7370544339
 N         -2.5633571856       -0.6644379733        0.2866205379
 C         -1.6628822506       -1.7478058886        0.3824512847
 C         -2.1071379542       -3.0434434992        0.6325521592
 C         -1.2112003990       -4.0973940632        0.6495701414
 C          0.1410464963       -3.8795685178        0.4380480660
 C          0.6286891329       -2.5921589930        0.2182606178
 N          1.9295878413       -2.3307726159        0.0893341791
 C          2.3856341861       -1.0888318034       -0.0186777195
 C          3.7918895468       -0.8280346106       -0.0761997124
 C          4.6877187327       -1.9073637650       -0.0166701897
 C          6.0419838745       -1.6990509679       -0.0494482769
 C          6.5354438877       -0.3972264835       -0.1423160630
 C          5.6729942666        0.6707782114       -0.2037610479
 C          4.2810832195        0.4957007180       -0.1733949459
 C          3.3488310561        1.5976361439       -0.2283522007
 C          3.7535930740        2.9378224667       -0.3149929260
 C          2.8413998773        3.9649151919       -0.3553659719
 C          1.4726191791        3.6957764673       -0.3132448693
 C          1.0405054003        2.3981227892       -0.2316491771
 C          1.9583531093        1.3358277892       -0.1853182895
 C          1.4728609802       -0.0016426112       -0.0711978401
 N          0.1682012360       -0.2498045928        0.0194038521
 C         -0.2933398218       -1.4847256734        0.1835857406
 H         -1.4928803228        3.8132854735        2.8353848271
 H         -0.3844051438        1.7087965402        3.5146850052
 H         -0.9259081925       -0.3922311908        2.3810565065
 H         -3.2150758194        3.7600660310        1.0423458312
 H         -5.7603984838        1.5591648473       -2.0341059706
 H         -6.3084670784       -0.4336367342       -3.4167861655
 H         -4.9791368988       -2.5032018216       -3.1321304654
 H         -3.2053446248       -2.6093332508       -1.4564770712
 H         -3.1547076604       -3.2089045120        0.8339241564
 H         -1.5665240053       -5.0974418293        0.8444093075
 H          0.8490811155       -4.6912557407        0.4851723084
 H          4.2734038633       -2.9011780766        0.0568076459
 H          6.7253933488       -2.5338548742       -0.0025371952
 H          7.6021927148       -0.2282399085       -0.1653459088
 H          6.0886714051        1.6633345686       -0.2754402754
 H          4.8037371017        3.1810853198       -0.3497954791
 H          3.1859816141        4.9867063255       -0.4200103237
 H          0.7604303839        4.5068487576       -0.3446755035
 H         -0.0117818469        2.1616005001       -0.1944418639
