54
 energy: -92.899817096024 gnorm: 0.000062952355 xtb: 6.7.1 (edcfbbe)
C           -5.70517355670637       -2.35876288918387        2.45625139828588
C           -4.75014767191246       -3.13424730449626        1.81468524201842
C           -3.72922292665105       -2.50410740094399        1.12702261868303
C           -3.71201867763867       -1.10976534548443        1.09269253336318
C           -2.64422832803992       -0.39066607856900        0.39100327412425
N           -1.39095490968710       -0.77403418330714        0.59444582475279
C           -0.37551884136399       -0.07511914425661        0.07807671970947
C            0.95519263544552       -0.41480801348661        0.27758731833463
C            1.96319830735667        0.41304513357711       -0.24069771432080
N            3.32463786108368        0.09615381550647       -0.07569030755863
C            4.16522413034184        0.94134348192204        0.64588679129029
C            3.68790636153326        2.05259381130287        1.33632683032314
C            4.55239452918238        2.86655266840815        2.04710169012678
C            5.90713718626969        2.58351910519225        2.08991542214645
C            6.39663053542625        1.46840433958665        1.43077070064092
C            5.53674610728464        0.64772284372817        0.71894605994890
O            6.08084761205090       -0.45184495706342        0.11447502800157
C            5.24622255711222       -1.27007075352367       -0.59554818601327
C            5.81523739398434       -2.37385979994307       -1.20966399382084
C            5.03116293704958       -3.23293346832773       -1.96140126644605
C            3.67835611771271       -2.97728343009443       -2.10645212824419
C            3.10264793604228       -1.87709832724524       -1.49493809717115
C            3.87028238857011       -1.01493288019875       -0.71634259668747
C            1.58533389479176        1.55765342916248       -0.92835088569714
N            0.32050083517521        1.89584500990122       -1.11892990561585
C           -0.66849470667670        1.13733605040955       -0.67341346131395
N           -1.92836862530565        1.45198001922588       -0.92261720054101
C           -2.92536503459470        0.69829702691380       -0.44921422650076
C           -4.28224936320399        0.99611844654701       -0.88383242309092
C           -4.65021802712990        2.30852008526396       -1.19875151423074
C           -5.94528764174026        2.55143175295740       -1.61171845977030
C           -6.83159240994651        1.48621276636077       -1.70973035150378
C           -6.36234670772606        0.21826459698898       -1.40054116121037
N           -5.12793246791869       -0.02696377613272       -1.00491507360268
N           -4.61400467684285       -0.36641539255652        1.72798717075292
C           -5.57987508129349       -0.97919370047022        2.38675805879805
H           -6.51969726123361       -2.80935635156779        3.00071775815884
H           -4.80012597396556       -4.21275489747304        1.85176705326127
H           -2.95981766177503       -3.06033325204056        0.61512090302813
H            1.20183603869860       -1.28772130035587        0.86035433417501
H            2.63261195718361        2.27522241095964        1.31625431727897
H            4.15794669089195        3.72357651108516        2.56994346873844
H            6.58155152031101        3.22012018110571        2.63967752864471
H            7.44339942635211        1.21131437272000        1.45574927740325
H            6.87439222217346       -2.53528925472517       -1.08890329194690
H            5.47979360283266       -4.09046968276445       -2.43651494549429
H            3.06090901138818       -3.63138441201165       -2.70181353830346
H            2.05024843838627       -1.67997480759221       -1.62389362436657
H            2.31952462254791        2.22913843817567       -1.35052464565221
H           -3.91828273129241        3.09539089655431       -1.10770584877600
H           -6.26269139034374        3.55510017373422       -1.85452036094446
H           -7.85224292870794        1.63275282082432       -2.02511406894646
H           -7.00052495011038       -0.65317987293781       -1.47844766206281
H           -6.28360263938645       -0.32394609259458        2.88451388460327
