  54
        -92.89421977
 C         -5.7675352761        2.2011904135       -2.4723338932
 C         -4.7472743364        3.0147429089       -2.0050574032
 C         -3.6888977668        2.4356474579       -1.3280288136
 C         -3.7027144293        1.0562238746       -1.1336723826
 C         -2.6136107911        0.3900240265       -0.4107827962
 N         -1.3856652830        0.7866614858       -0.6323073807
 C         -0.3835340158        0.0729924090       -0.0803545275
 C          0.9562612103        0.4508695535       -0.2665063871
 C          1.9426014346       -0.3835360290        0.2130172273
 N          3.3048863990       -0.0783210827        0.0808189540
 C          4.1602521795       -0.9717128503       -0.5735362140
 C          3.6863960508       -2.0944989265       -1.2411466968
 C          4.5593706739       -2.9620093696       -1.8791674626
 C          5.9170120341       -2.7132283187       -1.8757162659
 C          6.4016045790       -1.5740393421       -1.2511686423
 C          5.5347916164       -0.7050298202       -0.6139848801
 O          6.0824083502        0.4184832619       -0.0504372558
 C          5.2269375805        1.3090996864        0.5465897649
 C          5.7949360063        2.4476406076        1.0891380968
 C          5.0069720861        3.3782832315        1.7483649944
 C          3.6512342231        3.1517778807        1.8741116846
 C          3.0758118632        2.0157683887        1.3260772840
 C          3.8457611581        1.0879910666        0.6359517796
 C          1.5532699554       -1.5834288115        0.8627063612
 N          0.3218736920       -1.9404095719        1.0712260390
 C         -0.6604858376       -1.1296248078        0.6356924453
 N         -1.9246257756       -1.4565294525        0.9408660861
 C         -2.8883455785       -0.6955237047        0.4848058174
 C         -4.2553780290       -0.9607145406        0.9427712295
 C         -4.6827377113       -2.2680284747        1.1671516937
 C         -5.9854467684       -2.4706295950        1.5855893282
 C         -6.8055398975       -1.3691464529        1.7759453671
 C         -6.2725844937       -0.1078622719        1.5492723006
 N         -5.0356960092        0.0983072053        1.1444705355
 N         -4.6722036121        0.2722967115       -1.5987797930
 C         -5.6712369064        0.8349251050       -2.2474449662
 H         -6.6125933612        2.6125257207       -3.0022726124
 H         -4.7764237123        4.0828221787       -2.1672510089
 H         -2.8682624183        3.0201556184       -0.9445920744
 H          1.1837173806        1.3646250930       -0.7944560128
 H          2.6265686471       -2.2925919052       -1.2696610691
 H          4.1638466912       -3.8304379739       -2.3825283901
 H          6.6006000445       -3.3874266581       -2.3662857895
 H          7.4534977540       -1.3374357732       -1.2501238254
 H          6.8603060824        2.5810017787        0.9910669260
 H          5.4583274434        4.2636844087        2.1668422150
 H          3.0262578327        3.8549076820        2.4026814602
 H          2.0184130520        1.8471501429        1.4519580140
 H          2.3144261640       -2.2539861751        1.2415889200
 H         -3.9973012041       -3.0838531941        1.0059597505
 H         -6.3562043138       -3.4700697199        1.7622134001
 H         -7.8288737800       -1.4829330732        2.0984070585
 H         -6.8640751116        0.7859076986        1.7019837902
 H         -6.4310827986        0.1528144278       -2.6071538430
