  54
        -92.85535180
 C         -5.6997859005       -2.4280949848        2.4117137909
 C         -4.6674097950       -3.1725887069        1.8612850283
 C         -3.6501228027       -2.5160996947        1.1940782402
 C         -3.7127061509       -1.1261115055        1.0916323582
 C         -2.6520014191       -0.3909740610        0.3981720231
 N         -1.3962828257       -0.7621384583        0.5967937396
 C         -0.3796815786       -0.0731680769        0.0865987845
 C          0.9522671513       -0.4120373177        0.2790672326
 C          1.9584992034        0.4161885823       -0.2406271212
 N          3.3196270535        0.0970965307       -0.0772031106
 C          4.1642855875        0.9476645163        0.6323203290
 C          3.6888891043        2.0616907804        1.3162679605
 C          4.5548770428        2.8827808842        2.0185885855
 C          5.9079259647        2.6028262550        2.0573489788
 C          6.3951085333        1.4827520200        1.4025208365
 C          5.5349059612        0.6564597018        0.7012447043
 O          6.0803915702       -0.4479487596        0.1019836947
 C          5.2371738753       -1.2751115318       -0.5918036403
 C          5.8009007929       -2.3845875218       -1.1963899795
 C          5.0120615326       -3.2554037117       -1.9315515407
 C          3.6603904474       -3.0024632438       -2.0686070230
 C          3.0892385547       -1.8939280382       -1.4658587365
 C          3.8616829640       -1.0223203662       -0.7055770956
 C          1.5813912858        1.5626785170       -0.9241488704
 N          0.3160040350        1.8979574587       -1.1141787123
 C         -0.6723303564        1.1436342464       -0.6702122837
 N         -1.9331076192        1.4470570788       -0.9120941321
 C         -2.9332888826        0.7007788950       -0.4444456609
 C         -4.2889503956        1.0132887655       -0.8785587708
 C         -4.6309825957        2.3320607978       -1.1933449273
 C         -5.9229843120        2.5976091037       -1.6016202967
 C         -6.8295199392        1.5504464590       -1.6943108926
 C         -6.3818882699        0.2729977855       -1.3888307566
 N         -5.1529748518        0.0089175967       -0.9989608269
 N         -4.6880144506       -0.4127083261        1.6447073597
 C         -5.6502256648       -1.0471520205        2.2808662912
 H         -6.5157947713       -2.9028668724        2.9338414240
 H         -4.6572588619       -4.2499084325        1.9504052633
 H         -2.8233568819       -3.0477619450        0.7504366341
 H          1.2027714743       -1.2867289802        0.8565809749
 H          2.6336458050        2.2825249684        1.3002023429
 H          4.1611435483        3.7424653385        2.5381006627
 H          6.5850411708        3.2428755623        2.6000802299
 H          7.4425711794        1.2283030087        1.4254038298
 H          6.8609130822       -2.5447713259       -1.0825183495
 H          5.4590295064       -4.1184317552       -2.3987730058
 H          3.0386141413       -3.6646977383       -2.6506662756
 H          2.0364870740       -1.6992582296       -1.5913277532
 H          2.3172733652        2.2345191806       -1.3420479983
 H         -3.8848026048        3.1047590656       -1.1061663775
 H         -6.2230968476        3.6069043358       -1.8453224266
 H         -7.8490089031        1.7175057782       -2.0048454089
 H         -7.0379923521       -0.5846955167       -1.4664894177
 H         -6.4176424377       -0.4157152716        2.7100653358
