54
 energy: -92.937822628958 gnorm: 0.000095792126 xtb: 6.7.1 (edcfbbe)
C           -5.75581023957638        2.19231475771746       -2.49840467927099
C           -4.77272417775800        3.01740809325121       -1.97317267700465
C           -3.72077051867831        2.44396793458413       -1.28007136246921
C           -3.70450100980906        1.05948451208761       -1.12536095534520
C           -2.61676765683922        0.38979884724235       -0.40416241788054
N           -1.38860269875073        0.79175476391187       -0.62027591707336
C           -0.38562183031001        0.06585724518157       -0.08052068670706
C            0.95258666369788        0.44742718057363       -0.26009142439608
C            1.94333028409060       -0.39484440222436        0.20455165451871
N            3.30192702081175       -0.08705719702532        0.08260342430958
C            4.16714012363043       -0.98056865022625       -0.56716993122624
C            3.70223205763905       -2.10372145067019       -1.24198311868907
C            4.58197452249447       -2.96588075861131       -1.87784376186129
C            5.93948738335126       -2.71031596023209       -1.86796427586463
C            6.41548261710447       -1.57099760995019       -1.23847363241033
C            5.54041797669543       -0.70802565394869       -0.60158995968020
O            6.08124352816201        0.41664870800819       -0.03310133500547
C            5.21999839602380        1.31035845895851        0.55153657532553
C            5.78585388468978        2.45127004537062        1.09448360957799
C            4.99418723601521        3.38532551868373        1.74305405885318
C            3.63635083242488        3.16051420646128        1.85861878914576
C            3.06480739502200        2.02199574949805        1.31173763739347
C            3.83844181236714        1.08957989981423        0.63094070490037
C            1.55022961307424       -1.60633761625105        0.83123748431725
N            0.31741394127490       -1.96690653677756        1.03202302578544
C           -0.66555642058417       -1.14914725931946        0.61069881498630
N           -1.92938251656002       -1.48411692790033        0.90923440242967
C           -2.89215201590598       -0.71062892681550        0.46764237834310
C           -4.25740329788564       -0.96840966911422        0.93290752299088
C           -4.71312018052208       -2.27057019283207        1.13162102119403
C           -6.00999883365108       -2.45397819760559        1.57829571115447
C           -6.79680557052190       -1.33807122756121        1.82283566579184
C           -6.23993128816374       -0.08438138734749        1.61392892451672
N           -5.00727576186824        0.10458281133684        1.18043527261982
N           -4.64013180085044        0.26433026945230       -1.64106870489947
C           -5.63280874380494        0.82330103186609       -2.30830332433868
H           -6.59268778491638        2.59629184671841       -3.04545315476521
H           -4.82310051275091        4.08829183039820       -2.10425761595149
H           -2.92817911463068        3.03748809105051       -0.85343120365974
H            1.17679961444948        1.37037720481728       -0.77378846378676
H            2.64287207284497       -2.30640995847299       -1.27782317152848
H            4.19166675867946       -3.83395833634167       -2.38555183677697
H            6.62805971921563       -3.37982468824005       -2.35797049970837
H            7.46580672810806       -1.32698835270686       -1.23222398598229
H            6.85250490028642        2.58128614977699        1.00381496448738
H            5.44269930673801        4.27202539166098        2.16145522220370
H            3.00670256839676        3.86572044563912        2.37831908640088
H            2.00608773857370        1.85461596373055        1.43214626908940
H            2.30633391914142       -2.28504572478940        1.20638349380799
H           -4.05299910366331       -3.09867884385086        0.92987767901204
H           -6.39965767541850       -3.44882212460403        1.73601377488336
H           -7.81252039496968       -1.43474113397304        2.17196174462368
H           -6.80234797935885        0.82091659588540        1.80417276442024
H           -6.36175759200556        0.13102569308243       -2.70994686613189
