54
 energy: -92.937793731308 gnorm: 0.000036478835 xtb: 6.7.1 (edcfbbe)
C           -5.64075276263025        1.40103853632685       -3.03543207351853
C           -4.63356480279562        2.32140180939398       -2.78716511762709
C           -3.59363794578840        1.96164924451803       -1.94770999788298
C           -3.61238912347704        0.69169299045877       -1.37486871107100
C           -2.53756256955966        0.25127876736615       -0.47879550047254
N           -1.30122537653057        0.53021107793275       -0.81129045800810
C           -0.31235978216367       -0.01091300168379       -0.06741917996877
C            1.03370378689838        0.26144890180063       -0.35570809984647
C            2.00623014276753       -0.41064344389412        0.35795383044993
N            3.37153043514826       -0.18618364995683        0.15568777094631
C            4.21736541587013       -1.26080486900832       -0.15844473446766
C            3.72482957747374       -2.52329024727576       -0.46909472518314
C            4.58507531550748       -3.56527783193599       -0.77854232757383
C            5.95084936388643       -3.35890191063809       -0.80289130839113
C            6.45587892071402       -2.09514861982049       -0.54077253038627
C            5.60009092621231       -1.05205194411671       -0.23138069637218
O            6.16913470144289        0.17780677011398       -0.02234461603292
C            5.32790682698350        1.23475586039134        0.21786308482163
C            5.92329996653292        2.47320430431984        0.38623158844087
C            5.15259413913776        3.58736398924810        0.67661842214286
C            3.78532531142496        3.44889327722914        0.81399423917103
C            3.18425774880996        2.21173703681302        0.64016954842310
C            3.93758407665549        1.08922567154793        0.31796259013543
C            1.58744566357723       -1.35247924501333        1.33406691280851
N            0.34778029248510       -1.59977865317795        1.63682304807490
C           -0.61743777730095       -0.93332559042346        0.97579203324964
N           -1.88665512112516       -1.12160394659133        1.36496087678759
C           -2.83372601779018       -0.50557330053070        0.69835374788394
C           -4.20026775651564       -0.57070734260733        1.22248708566522
C           -4.67439431776207       -1.72933036232313        1.83577273287155
C           -5.97001593751517       -1.73520531605655        2.32170082732988
C           -6.73823878842898       -0.58780130721716        2.18931773080508
C           -6.16428197993673        0.51942615102584        1.58093732895903
N           -4.93164107031568        0.53679377285998        1.10798846085113
N           -4.57082064137378       -0.19863526231575       -1.62347354681118
C           -5.55226804037363        0.15409828457621       -2.43326342799760
H           -6.46898171792898        1.63904011246525       -3.68364681399654
H           -4.65694435183209        3.30080052125723       -3.24182889454083
H           -2.78280192903342        2.63584031178347       -1.72268903722269
H            1.27688832072433        0.96588145334343       -1.13716342785119
H            2.65929823481652       -2.69506581169675       -0.47395570847713
H            4.17381527158405       -4.53608010693378       -1.00671239629860
H            6.62418535671549       -4.16731159527779       -1.03873026366857
H            7.51431023716311       -1.89188531964739       -0.57538194453849
H            6.99577592367536        2.53705913410129        0.29387639778438
H            5.62405935744333        4.54859307321239        0.80414287910362
H            3.17079164821451        4.30037319678252        1.06135180635035
H            2.11785163409088        2.12196741941156        0.77396120618919
H            2.32925173573684       -1.89646405809289        1.90569827692458
H           -4.02813424961881       -2.58875417720712        1.91398033254715
H           -6.37289945261021       -2.61758188607477        2.79662025572294
H           -7.75250323402125       -0.54761446254654        2.55337785269757
H           -6.71268776945488        1.44573056902898        1.46570146159598
H           -6.30092081582133       -0.60889997523171       -2.60468779050320
