54
 energy: -92.899810784217 gnorm: 0.000164365120 xtb: 6.7.1 (edcfbbe)
C           -5.72591865035568        2.18945135532074       -2.59558989531072
C           -4.76572193960485        3.00709946732755       -2.01703074116102
C           -3.74096380688002        2.42580961539580       -1.29305109745686
C           -3.72490588553908        1.03732739022601       -1.16000547645479
C           -2.65346818949969        0.36824021260217       -0.41639899082825
N           -1.40145846128798        0.74157752499236       -0.64623103665223
C           -0.38318351844164        0.07786460822410       -0.09095387775581
C            0.94647062618080        0.41045644332319       -0.31048792225582
C            1.95719017233072       -0.38503912077098        0.25074827926008
N            3.31848861852609       -0.07554417090460        0.06787169110026
C            4.15546865310337       -0.95259322946935       -0.61857514271799
C            3.67195968282609       -2.08562071019096       -1.26805241166763
C            4.53211502582789       -2.92954319943152       -1.94850983912809
C            5.88848005356684       -2.65579378994515       -2.00069357625571
C            6.38454748822674       -1.52169897547210       -1.37991289581235
C            5.52909909922420       -0.67100143148208       -0.69864937081319
O            6.07939694835609        0.44449783294909       -0.13001422899354
C            5.24780146715974        1.29505796831863        0.54481554739023
C            5.82282750752058        2.41528604247291        1.12246527825485
C            5.04093755604975        3.31018252732650        1.83366244602455
C            3.68405553998479        3.07461436426508        1.97471768330774
C            3.10257464130563        1.95717580674341        1.40112180629078
C            3.86882182053074        1.05666997093841        0.66578945973549
C            1.58403012920395       -1.49229752877555        0.99935282426077
N            0.32047326839343       -1.82114766289655        1.21326650287383
C           -0.67114031474038       -1.08906815163981        0.73112512864424
N           -1.92956420808754       -1.38898056015569        1.00524708557619
C           -2.92932584913116       -0.66665869951550        0.49119315416301
C           -4.28434226728291       -0.93920622044031        0.94824061853672
C           -4.65140377192657       -2.23230506386126        1.33546538217777
C           -5.94531250828356       -2.45187770377808        1.76486279174222
C           -6.83087696453449       -1.38248674076202        1.80746253286139
C           -6.36203263619306       -0.13320861379924        1.42931046820239
N           -5.12890286198158        0.08960686747558        1.01660700229709
N           -4.63208013327431        0.25211455741243       -1.73503721264408
C           -5.60182056211140        0.81813169342778       -2.42894016977706
H           -6.54351468426310        2.60148657366086       -3.16534801983604
H           -4.81452236970271        4.08025335532220       -2.13112519159086
H           -2.96720064045653        3.01552050836917       -0.82728327042729
H            1.18962843791644        1.25038823005529       -0.94111984169890
H            2.61541735014243       -2.30158561670386       -1.23974164710809
H            4.13315912501144       -3.80264997011900       -2.44042900964286
H            6.55929065397086       -3.31514302414754       -2.52756905960764
H            7.43305954017216       -1.27263110349937       -1.41207507593178
H            6.88450750194529        2.56186340316767        1.00495314466258
H            5.49423401480232        4.18031930297919        2.28062613167434
H            3.06785058994310        3.75824443697550        2.53727147845102
H            2.04700024785172        1.77570554705370        1.52721487399593
H            2.32120058167312       -2.13996378392999        1.45235311952530
H           -3.91977299860757       -3.02312765663779        1.28546869255500
H           -6.26239420150761       -3.44061127622920        2.06306877949139
H           -7.85084750276745       -1.51144351173591        2.13260081201352
H           -6.99961586301983        0.74154381381761        1.46246077586407
H           -6.30976072834111        0.13028688574476       -2.87398319743513
