  100
       -154.37882472
 C         -6.4215047783        3.9843969486        2.8931481209
 C         -5.5590106502        3.9226294634        1.6695727959
 C         -5.1141390083        5.0882732860        1.0543834165
 C         -4.3135146493        5.0222500331       -0.0694339496
 C         -3.9206044060        3.8119150187       -0.6252351054
 C         -3.0827826283        3.8037719662       -1.8669765581
 C         -4.3504732176        2.6352911215        0.0031213959
 N         -4.0028426814        1.3664591716       -0.4860225696
 C         -2.7277353641        1.0491152696       -0.9431327782
 C         -2.6208136464        0.2894669658       -2.1156561304
 C         -1.4116709527       -0.0991081953       -2.6134437030
 C         -0.2061868516        0.2342699779       -1.9296655155
 C          1.0405740051       -0.1461955545       -2.4211071201
 C          2.2041564745        0.1435945647       -1.7275959573
 C          2.1607679526        0.8197161053       -0.5066462117
 C          3.3400174875        1.0994648670        0.2688629376
 N          4.5580698909        0.5002336272       -0.0305393680
 C          5.7218548930        1.2871802571        0.0373853496
 C          5.7153156971        2.5101313134       -0.6331801243
 C          6.8140253929        3.3488832821       -0.6163095782
 C          6.8039999762        4.6574257007       -1.3456406394
 C          7.9414157889        2.9426023501        0.0917003376
 C          7.9453641688        1.7427479713        0.7761093713
 C          6.8442469556        0.8961034588        0.7770716948
 C          6.8671140713       -0.3657496053        1.5842672802
 C          4.6351681678       -0.8472969362       -0.3410464333
 C          5.6512595920       -1.3607324263       -1.1518992994
 C          5.7264343054       -2.7108512830       -1.4653297144
 C          4.7931108042       -3.6162255286       -0.9977178757
 C          3.7671131022       -3.1345679540       -0.1896090190
 C          3.6966457811       -1.7703600887        0.1351882478
 O          2.6428753054       -1.4998243325        0.9546711340
 C          2.0092417235       -2.6816977874        1.1636024226
 C          0.8804825689       -2.8833517284        1.9378469742
 C          0.4017069132       -4.1781194594        2.0323226127
 C          1.0252389154       -5.2337946089        1.3699236295
 C          2.1483340501       -5.0299887183        0.5929129689
 C          2.6508680765       -3.7392260364        0.4881376497
 C          3.2658813146        1.9715295940        1.3605351856
 C          2.0663097767        2.4598733589        1.7947977084
 C          0.8506577645        2.0920197115        1.1442462780
 C         -0.3932830473        2.4810252494        1.6338458779
 C         -1.5655146245        2.1331142192        0.9800713561
 C         -1.5398456776        1.4219665392       -0.2220743959
 C         -0.2822543252        0.9892362903       -0.7302910558
 C          0.9106759500        1.2977314442       -0.0303912569
 C         -4.9779768376        0.3745426802       -0.5351442992
 C         -6.3240860921        0.6610013113       -0.7825100791
 C         -7.2895792710       -0.3344497643       -0.8237597015
 C         -6.9678843198       -1.6655064288       -0.6351727787
 C         -5.6337466820       -1.9854498615       -0.4004241304
 C         -4.6579996104       -0.9753253039       -0.3483410463
 O         -3.4194314120       -1.4827971674       -0.1000409279
 C         -3.5704975932       -2.8293637028       -0.0036587604
 C         -2.5648917367       -3.7530050421        0.2148826149
 C         -2.9348170792       -5.0846857614        0.2751153666
 C         -4.2621560054       -5.4791231225        0.1213087494
 C         -5.2635821343       -4.5553394833       -0.1046273004
 C         -4.9163584857       -3.2117680443       -0.1714699465
 C         -5.1663106633        2.7100853608        1.1346921869
 H         -6.8664832031        3.0155067509        3.1048145988
 H         -5.8272041392        4.2854535434        3.7559509775
 H         -7.2156887128        4.7172080382        2.7646335104
 H         -5.4019653830        6.0487515192        1.4554247222
 H         -3.9902720569        5.9384375229       -0.5425661917
 H         -3.1614202554        4.7624681074       -2.3748723249
 H         -2.0342735247        3.6323788488       -1.6234155271
 H         -3.3991025517        3.0184318966       -2.5499037408
 H         -3.5291215781        0.0358364125       -2.6467734353
 H         -1.3483997521       -0.6557915991       -3.5361381372
 H          1.0959322158       -0.6914674466       -3.3525439331
 H          3.1507241128       -0.1634632079       -2.1462723826
 H          4.8243795547        2.7905540662       -1.1771584865
 H          5.8331350558        4.8431794146       -1.7974126068
 H          7.5595700225        4.6590647701       -2.1306206846
 H          7.0335610540        5.4738409239       -0.6624586154
 H          8.8142263169        3.5782792824        0.1157364678
 H          8.8213445187        1.4567721857        1.3408014815
 H          7.1436073406       -1.2202735673        0.9652933383
 H          7.5928454670       -0.2802289895        2.3900055214
 H          5.8881704369       -0.5706788522        2.0133793375
 H          6.3861002652       -0.6760274791       -1.5488130173
 H          6.5328072561       -3.0527123783       -2.0969893482
 H          4.8526328771       -4.6633839004       -1.2467511265
 H          0.4011150754       -2.0578713347        2.4395741650
 H         -0.4749844035       -4.3743170083        2.6315414553
 H          0.6206935652       -6.2299291454        1.4708737935
 H          2.6290431743       -5.8492128306        0.0804301277
 H          4.1767727517        2.2116760437        1.8917001016
 H          2.0146602322        3.0961401831        2.6652673751
 H         -0.4443052291        3.0653215487        2.5415675949
 H         -2.5046318920        2.4347273471        1.4137794148
 H         -6.6097997741        1.6890186278       -0.9461532552
 H         -8.3143371537       -0.0548851514       -1.0167489630
 H         -7.7207524583       -2.4361571349       -0.6713383071
 H         -1.5393965812       -3.4393803175        0.3274955926
 H         -2.1746055107       -5.8328765049        0.4416933208
 H         -4.5088782026       -6.5289288719        0.1762944525
 H         -6.2902886195       -4.8636733891       -0.2291031288
 H         -5.4831534138        1.7889487487        1.6033548707
