  101
       -155.92018768
 C         -9.6114151398        4.4496956195       -2.6317562643
 C        -10.0452521470        3.1511355721       -2.8390663230
 C         -9.4122308254        2.0972800714       -2.2069958444
 C         -8.3300058935        2.3255884449       -1.3608250802
 C         -7.6537907746        1.2070920330       -0.6857789852
 C         -8.3892785970        0.1639153191       -0.1335138021
 C         -7.7596848558       -0.8951608874        0.5116183318
 C         -8.5508098095       -1.9901375020        1.0941500496
 C         -8.1403109569       -3.3136068881        0.9553616589
 C         -8.8876945808       -4.3421000735        1.4980142709
 C        -10.0532433069       -4.0651854204        2.1925093281
 C        -10.4684942685       -2.7524417822        2.3395063932
 C         -9.7254891450       -1.7229544276        1.7928257383
 C         -6.3708783015       -0.9042406933        0.5990894714
 C         -5.6207273886        0.1301723738        0.0549367287
 C         -4.1456368538        0.1279349934        0.1551314106
 C         -3.3933269241       -0.7913011379       -0.5886400610
 C         -4.0120294199       -1.7422624128       -1.4423408698
 C         -3.2739598679       -2.6207321064       -2.1732997392
 C         -1.8666871766       -2.5878490724       -2.1119561433
 C         -1.2338643257       -1.6805280288       -1.3196657482
 C         -1.9652093013       -0.7614655028       -0.5213724729
 C         -1.3261034048        0.1843355916        0.2944501114
 C          0.1481972278        0.2440339238        0.3324694524
 C          0.8191620134        1.3569360208       -0.1699489666
 C          2.1974384475        1.4037508082       -0.1727893038
 C          2.9418393473        0.3329313452        0.3205602562
 C          4.3929271009        0.4093739492        0.2581177295
 N          5.0793288229        1.4970182648        0.4982208717
 C          6.3853853178        1.1603555022        0.3321070768
 C          7.5297052583        1.9902386749        0.5071711241
 C          7.4447237385        3.3178452237        0.9103048176
 C          8.5954941630        4.0681391192        1.0810613057
 C          9.8349443611        3.5064052994        0.8479925477
 C          9.9566139446        2.1766893844        0.4347133331
 C         11.2289609362        1.5899012743        0.1755076470
 C         11.3324871840        0.3116334744       -0.2510944027
 C         10.1769996949       -0.4998154953       -0.4501985605
 C         10.2897083263       -1.8110808748       -0.9198146848
 C          9.1647184379       -2.5779508525       -1.1355765070
 C          7.9049587981       -2.0730626726       -0.8616622598
 C          7.7465878539       -0.7821498870       -0.3610960288
 C          8.8962544462        0.0401641787       -0.1754815698
 C          8.7900861804        1.3916704412        0.2598611656
 C          6.4957369770       -0.1806690335       -0.0388765512
 N          5.2040209680       -0.6549963283       -0.0711717570
 C          4.7362421209       -1.9472943851       -0.3764659422
 C          3.8741178246       -2.1274942855       -1.4518531935
 C          3.3688463927       -3.3863085809       -1.7214772379
 C          3.7221149460       -4.4640913671       -0.9269496061
 C          4.5838737026       -4.2835957909        0.1430097407
 C          5.0893870379       -3.0281440306        0.4255641848
 C          2.2730496515       -0.7635417698        0.8612093834
 C          0.8932011377       -0.8050979664        0.8630960209
 C         -2.0804770279        1.0861666750        1.0594117063
 C         -1.4664779546        2.0165383865        1.9387927793
 C         -2.2093204736        2.8813590749        2.6818329330
 C         -3.6159501430        2.8613185771        2.6022869404
 C         -4.2441207421        1.9729153171        1.7853919954
 C         -3.5075354231        1.0600449382        0.9853790040
 C         -6.2666059652        1.1807879414       -0.5847822900
 C         -7.8997455405        3.6352649001       -1.1618892907
 C         -8.5376325372        4.6881125411       -1.7905062108
 H        -10.1078564681        5.2726312952       -3.1243951942
 H        -10.8797775692        2.9589516253       -3.4978770217
 H         -9.7449115878        1.0848661591       -2.3852601234
 H         -9.4668991133        0.1768549952       -0.2058269051
 H         -7.2394412787       -3.5370611699        0.4020946308
 H         -8.5609881265       -5.3648229304        1.3772729912
 H        -10.6357277149       -4.8691722270        2.6177048743
 H        -11.3743751289       -2.5300540771        2.8846023368
 H        -10.0455155823       -0.6994691420        1.9247402920
 H         -5.8677955038       -1.7065079125        1.1195685201
 H         -5.0900807812       -1.7518048595       -1.5060943839
 H         -3.7593779434       -3.3415551616       -2.8149504373
 H         -1.2951472495       -3.2831379252       -2.7094762074
 H         -0.1548141624       -1.6461236392       -1.2905151849
 H          0.2476593442        2.1805659109       -0.5729916025
 H          2.7213660485        2.2618475537       -0.5642725361
 H          6.4677652850        3.7390299440        1.0885692243
 H          8.5231443884        5.0983645749        1.3985399819
 H         10.7316790603        4.0954177201        0.9796915702
 H         12.1104385203        2.1983219210        0.3216115011
 H         12.2989016000       -0.1268907935       -0.4568672194
 H         11.2714636261       -2.2133068396       -1.1246780826
 H          9.2604153068       -3.5826601889       -1.5213867580
 H          7.0399740730       -2.6884628857       -1.0523200886
 H          3.6040134215       -1.2801735644       -2.0645407918
 H          2.6981664302       -3.5248039653       -2.5560347826
 H          3.3256665995       -5.4452195753       -1.1399231821
 H          4.8589466743       -5.1221006329        0.7651084293
 H          5.7556027438       -2.8744902791        1.2621815896
 H          2.8284350831       -1.5800747402        1.2978744585
 H          0.3810672680       -1.6568251370        1.2872782130
 H         -0.3896461156        2.0197717811        2.0177134466
 H         -1.7266213757        3.5817853079        3.3474788292
 H         -4.1902712258        3.5486099423        3.2061641614
 H         -5.3227999111        1.9409640109        1.7427095638
 H         -5.6778469267        1.9716395109       -1.0267560699
 H         -7.0722934881        3.8290346084       -0.4945204144
 H         -8.1968604181        5.6995336724       -1.6226097308
