  65
       -101.59371361
 N        -10.6417341540        0.0281245453       -0.0476405013
 C         -9.4944061871        0.0206412622       -0.0340631380
 C         -8.0822815036        0.0126515404       -0.0221279136
 C         -7.3952827869       -0.2817969067        1.1569689946
 C         -6.0156667385       -0.2895561497        1.1611036339
 C         -5.2994098177       -0.0016334639        0.0003912415
 C         -3.8225679856       -0.0057798006        0.0105936381
 C         -3.1237506263        1.1992068939       -0.1525773006
 C         -3.7946035694        2.4435967774       -0.2859822908
 C         -3.1044333533        3.6021563498       -0.4676901673
 C         -1.6970011632        3.5886688859       -0.5324260924
 C         -1.0150029396        2.4207908576       -0.3834457025
 C         -1.6943142609        1.1930496060       -0.1663045602
 C         -1.0006821289       -0.0118197798        0.0160221788
 C          0.4767464962       -0.0142355564        0.0119966030
 C          1.1801660127       -0.6041478686       -1.0342688800
 C          2.5608863851       -0.5939559005       -1.0501204205
 C          3.2673708645       -0.0057389722       -0.0043219992
 N          4.6674683036        0.0010426242       -0.0125373048
 C          5.4799739050       -1.0962856794       -0.2200538453
 C          5.1368433633       -2.4253410200       -0.4226173051
 C          6.1609966323       -3.3399055777       -0.5772346432
 C          7.4977651734       -2.9513321116       -0.5243932762
 C          7.8456088148       -1.6345010518       -0.2992927875
 C          6.8338249914       -0.6967327991       -0.1407509137
 C          6.8281673012        0.7149510503        0.1230118502
 C          7.8323474287        1.6599809851        0.2868920738
 C          7.4738685361        2.9738240052        0.5127695093
 C          6.1340572132        3.3525229312        0.5602020756
 C          5.1173544447        2.4305923057        0.4002378095
 C          5.4711292825        1.1041941401        0.1982809734
 C          2.5693737385        0.5761023295        1.0508216897
 C          1.1886771219        0.5778835170        1.0512965541
 C         -1.7002598884       -1.2127715842        0.1998209673
 C         -1.0265423868       -2.4424441232        0.4233379045
 C         -1.7139522359       -3.6067035803        0.5758376966
 C         -3.1213035451       -3.6145690692        0.5065596962
 C         -3.8061769430       -2.4541850818        0.3165326968
 C         -3.1297643772       -1.2130488184        0.1808146101
 C         -5.9941010500        0.2929090059       -1.1718504347
 C         -7.3735020351        0.2996162456       -1.1901513952
 H         -7.9498571133       -0.5015024369        2.0574729774
 H         -5.4789433860       -0.5128060174        2.0717386591
 H         -4.8734673154        2.4584017672       -0.2367072321
 H         -3.6304106175        4.5399133602       -0.5680402540
 H         -1.1657396395        4.5142150507       -0.6973857698
 H          0.0636526873        2.4105212719       -0.4313853742
 H          0.6349663917       -1.0584831549       -1.8489124970
 H          3.0995836961       -1.0280148607       -1.8790096630
 H          4.1044607809       -2.7403965619       -0.4473903906
 H          5.9193434642       -4.3800200162       -0.7390658969
 H          8.2689645040       -3.6960727180       -0.6524834053
 H          8.8813167955       -1.3355476726       -0.2419069799
 H          8.8704592548        1.3688387958        0.2331140674
 H          8.2390097054        3.7240297186        0.6452526990
 H          5.8841102133        4.3906817725        0.7220319281
 H          4.0825377971        2.7379516831        0.4209535224
 H          3.1153864573        1.0136883391        1.8730459327
 H          0.6503274495        1.0296602626        1.8718842127
 H          0.0520588558       -2.4358588711        0.4746785548
 H         -1.1873183939       -4.5337194016        0.7473390453
 H         -3.6513980331       -4.5497236224        0.6096930111
 H         -4.8849240073       -2.4646618985        0.2632380572
 H         -5.4403614327        0.5126108753       -2.0731311161
 H         -7.9110866962        0.5259509085       -2.0992502486
