104
 energy: -168.142563374652 gnorm: 0.000035624216 xtb: 6.7.1 (edcfbbe)
C           -8.17056722915948        3.46828923540587       -0.51355195654621
C           -6.87497346198105        4.19997922658413       -0.10930064073081
C           -7.18538819504545        5.66545496983155        0.25595461188904
C           -5.92308542486590        4.18352135624893       -1.28532019926783
C           -6.30878219402651        4.75648568853950       -2.49006143162407
C           -5.48750117491627        4.74536045086225       -3.60241522087168
C           -4.24623676774105        4.13012535600617       -3.52925382169245
C           -3.83495386735924        3.55630838868521       -2.34780190724638
C           -4.65114106765729        3.59348546988652       -1.20668587144912
N           -4.20435343338253        3.02407153665022       -0.03101873701346
C           -2.88112419150988        2.50208487499397        0.01839382689415
C           -1.80097704834035        3.39587649705159        0.03219811535242
C           -0.49845068241651        2.93934020980473        0.09070453715844
C           -0.28571951843174        1.56857430785957        0.13007075641250
C           -1.37548449262342        0.65664723841294        0.08333869802906
C           -2.68123846613148        1.13149331098966        0.04053816823787
C           -0.80685791537761       -0.65455772802180        0.08752666198089
C           -1.35321787506886       -1.93234660558782        0.06438796894300
C           -0.49113160237530       -3.01641551015225        0.10503180674889
N           -1.01990714555211       -4.33640786497521        0.07348534763122
C           -0.83628234788082       -5.10382085816260       -1.06007655903445
C           -0.18062513027645       -4.55397001841446       -2.17263109509570
C            0.02922352025524       -5.30011992283462       -3.30987607270160
C           -0.42360272275948       -6.61015087032023       -3.36924036856479
C           -1.10013018983789       -7.14601959356703       -2.28897976181333
C           -1.32603713965806       -6.41855270344947       -1.12785703014072
C           -2.10478440062797       -7.04645252148362        0.00716483942937
C           -3.51045603187796       -7.41429221096973       -0.50881602632584
C           -1.36430686256672       -8.31414799293795        0.47842119697306
C           -2.24492201987761       -6.10741125416249        1.18491991068315
C           -2.92338087491818       -6.52938092384619        2.32084801089099
C           -3.04925464833132       -5.72660032342084        3.43955649212887
C           -2.46611199543471       -4.46786488127177        3.44549814812624
C           -1.78971091794729       -4.02095094474496        2.33330477994222
C           -1.68858946755913       -4.81767731110381        1.18207815109451
C            0.89797914970779       -2.83891705059740        0.18648112184810
C            1.45575466131357       -1.57565925626446        0.21116326565752
C            0.60343412026903       -0.48224004759537        0.14147309202217
N            0.89707668159295        0.86307151331323        0.16689759429733
C            2.18321013731515        1.41597723423191        0.18939355354408
C            2.50689092204770        2.43174819199213        1.13002440081502
C            3.77114402075489        2.96491677422232        1.15224017791181
C            4.73629244112959        2.54977026703321        0.23779093110150
C            4.41791487560493        1.53001362194615       -0.68542525146968
C            3.15723477434420        0.96515235314725       -0.68964832744757
S            5.70289843838175        0.84913424172430       -1.68124711598822
O            5.23997059882378       -0.43632539924980       -2.19078744484711
O            6.14819332286895        1.77163481071235       -2.70668482349480
C            6.96492457144694        0.54937301509457       -0.47966088643025
C            7.53509173120252       -0.70841627175475       -0.33893076162609
C            8.43985994594063       -0.94791374621611        0.67477168012291
C            8.75391539224929        0.06809517454243        1.58888599281418
C            8.15956638232109        1.30760170485479        1.47504905566161
C            7.27900276781752        1.56499656132715        0.43243140746146
S            6.40090895172695        3.09715910101670        0.33474446322361
O            6.58081620732231        3.81427584873522        1.59049031285994
O            6.79187904505487        3.84561791833250       -0.84535275655056
C           -4.99007555288380        2.97484068851126        1.10342852518683
C           -4.47983434625637        2.40235860293317        2.27875262259750
C           -5.24591350891342        2.32936175280628        3.41988472875356
C           -6.53647307550224        2.83796949334055        3.41883738613615
C           -7.03410220209489        3.42901464611761        2.27215222614774
C           -6.28674379236203        3.51489131043004        1.10486823101172
H           -8.62167116028736        3.93454941100364       -1.38407136489652
H           -7.95188261481780        2.42961947291760       -0.75378838418515
H           -8.89363439300529        3.49004294282867        0.29607526228145
H           -7.63840139084670        6.18328840899817       -0.58417962101596
H           -7.86976395470554        5.71695932980139        1.09746053214988
H           -6.26784765418484        6.18492122498824        0.52625817723955
H           -7.27675451442662        5.22568760432618       -2.56931308250294
H           -5.81660710256750        5.20334298089004       -4.52251649567838
H           -3.60129600097273        4.09459750471969       -4.39409103161295
H           -2.87439514390020        3.06904273075392       -2.29983497990589
H           -1.99959251468021        4.45606453455999        0.00000440431646
H            0.32773313302035        3.63188151821065        0.09672794746413
H           -3.52060010565961        0.45451951366473        0.00996024323984
H           -2.42008353864947       -2.08224209384505        0.00845842378472
H            0.16247510523013       -3.53256906769860       -2.13862044122886
H            0.54206377634855       -4.85888464499352       -4.15096499773937
H           -0.26026886919997       -7.20441207515418       -4.25509365686892
H           -1.46169656357931       -8.15969631421625       -2.35928160935818
H           -3.44559337313550       -8.11167154295165       -1.33842035619808
H           -4.10039328605662       -7.87486964704113        0.27782832160344
H           -4.02784258460497       -6.51983847239210       -0.85027436320599
H           -1.25233226927150       -9.02084151140169       -0.33820563355853
H           -0.37358387036638       -8.05229108226276        0.84524316297611
H           -1.90898519861314       -8.80408154684944        1.27975570463671
H           -3.36493743300749       -7.51318863933363        2.34018439623507
H           -3.58467439617042       -6.08521292362453        4.30516728957946
H           -2.53301613594420       -3.83843813854707        4.31968524841794
H           -1.32188766769497       -3.05000371043788        2.34993625213252
H            1.53423490562546       -3.70881391372712        0.23992360223263
H            2.52357935568406       -1.44732431544526        0.29090143896035
H            1.76355383581307        2.75240268741731        1.84168478802563
H            4.05838072054290        3.71497775822059        1.87302011987084
H            2.95751815316937        0.18703747899136       -1.41018583218902
H            7.24762378893985       -1.47306478033336       -1.04448628814453
H            8.90137099566907       -1.91818596115440        0.76993827430045
H            9.45618798046337       -0.12313888864407        2.38502869552237
H            8.35584701966306        2.10543614984716        2.17512290981762
H           -3.47178766911760        2.02097039445968        2.28993273454453
H           -4.83527656901853        1.88248339270509        4.31239278055745
H           -7.14545120866642        2.78551945055829        4.30821078240362
H           -8.03266359249372        3.83606000688093        2.29396728080759
