  104
       -168.14056085
 C         -8.1550295190        3.3718477457       -0.5300989079
 C         -6.8764283443        4.1701120487       -0.2158463366
 C         -7.2171753597        5.6540780925        0.0124616530
 C         -5.9363226102        4.0614826818       -1.4014977111
 C         -6.3468448913        4.5241776222       -2.6441658685
 C         -5.5407078477        4.4358705486       -3.7641064289
 C         -4.2886846954        3.8591737143       -3.6519935552
 C         -3.8557005978        3.3909988703       -2.4293331264
 C         -4.6621843519        3.4949881978       -1.2920549046
 N         -4.1965292505        3.0204731348       -0.0764468184
 C         -2.8809410094        2.4911474679       -0.0010974404
 C         -1.7934250175        3.3682735986        0.0562998263
 C         -0.4958304713        2.9038292250        0.1429807497
 C         -0.2980289089        1.5312191228        0.1901924087
 C         -1.3881111407        0.6376542678        0.0974728110
 C         -2.6853973626        1.1194172889        0.0044387837
 C         -0.8348336253       -0.6885427609        0.1034886809
 C         -1.4097222755       -1.9498682755        0.0529175033
 C         -0.5772928086       -3.0560366920        0.1067696425
 N         -1.1302526169       -4.3632159708        0.0528783555
 C         -1.0846380226       -5.0602374076       -1.1438993213
 C         -0.5351274443       -4.4528592735       -2.2768555159
 C         -0.4704352818       -5.1225754553       -3.4805030817
 C         -0.9599492081       -6.4123845260       -3.5779561799
 C         -1.5184098293       -7.0091418401       -2.4627823089
 C         -1.5961162273       -6.3584929987       -1.2390908788
 C         -2.2370832932       -7.0624976743       -0.0582181304
 C         -3.6969764905       -7.3939938235       -0.4179578050
 C         -1.4533494277       -8.3554069805        0.2321477495
 C         -2.2274075065       -6.1990822687        1.1889912511
 C         -2.7699697577       -6.6945117225        2.3666063030
 C         -2.7771390140       -5.9606308084        3.5384021880
 C         -2.2195945432       -4.6950732305        3.5461474533
 C         -1.6744408637       -4.1778216545        2.3899465381
 C         -1.6792941175       -4.9119635210        1.2000481604
 C          0.8075613260       -2.9027406273        0.2256139897
 C          1.3956035492       -1.6539674004        0.2713010018
 C          0.5677165136       -0.5431541277        0.1896989192
 N          0.8824570044        0.8064758559        0.2500100545
 C          2.1610523648        1.3407488932        0.3450870557
 C          2.4360507003        2.3787601151        1.2419842934
 C          3.7089505845        2.9118077967        1.3252881807
 C          4.7224623382        2.4112740109        0.5238361865
 C          4.4595722346        1.3749062037       -0.3499544560
 C          3.1940548035        0.8374386560       -0.4503279739
 S          5.7703145285        0.6733261815       -1.3632380172
 O          5.3855380009       -0.6815132201       -1.6621154585
 O          6.0516973616        1.5330207703       -2.4726091343
 C          7.1774903266        0.6087487326       -0.2476156210
 C          7.9906604479       -0.5114228535       -0.2472187925
 C          9.0763779166       -0.5674273607        0.6144936504
 C          9.3351755154        0.4866706913        1.4783190121
 C          8.5099220694        1.6017123941        1.4828862199
 C          7.4355039180        1.6585622124        0.6121816576
 S          6.3738111045        3.1074411063        0.6055429443
 O          6.5128472459        3.7716732071        1.8737893406
 O          6.6204679164        3.8811665722       -0.5740481350
 C         -4.9627628362        3.0808465299        1.0762591465
 C         -4.4349627981        2.6145939027        2.2840758751
 C         -5.1758836665        2.6559133170        3.4464395409
 C         -6.4597925957        3.1694481103        3.4266617566
 C         -6.9787677928        3.6445084190        2.2364483398
 C         -6.2551109599        3.6158974510        1.0522241234
 H         -8.6441532317        3.7570096897       -1.4204487107
 H         -7.9052267192        2.3262237374       -0.7009031106
 H         -8.8592074330        3.4256056997        0.2955719606
 H         -7.6683803311        6.0898284137       -0.8745523617
 H         -7.9120674172        5.7704658801        0.8394880190
 H         -6.3106992051        6.2101085629        0.2448621371
 H         -7.3258482595        4.9672852308       -2.7481923217
 H         -5.8906506287        4.8083752869       -4.7144813721
 H         -3.6464621155        3.7698702458       -4.5154900642
 H         -2.8808415971        2.9345452754       -2.3506890949
 H         -1.9840114337        4.4303526226        0.0228925062
 H          0.3318336621        3.5956157042        0.1570874049
 H         -3.5273116254        0.4481503690       -0.0623908828
 H         -2.4791734866       -2.0739035462       -0.0166820887
 H         -0.1580397685       -3.4439378764       -2.2102906466
 H         -0.0383969104       -4.6333415159       -4.3405691683
 H         -0.9135124555       -6.9482934685       -4.5133868460
 H         -1.9050961103       -8.0127667312       -2.5553559723
 H         -3.7454831900       -8.0234044757       -1.3021500033
 H         -4.1893085600       -7.9150204753        0.3984808677
 H         -4.2455372263       -6.4757739035       -0.6199127812
 H         -1.4493283693       -9.0097512740       -0.6350019732
 H         -0.4225856284       -8.1139629653        0.4849350610
 H         -1.8925127352       -8.8974720502        1.0648882703
 H         -3.2011514660       -7.6841410962        2.3764527128
 H         -3.2090758899       -6.3763862241        4.4356387763
 H         -2.2057437628       -4.1075367639        4.4519795128
 H         -1.2343326947       -3.1923052644        2.4052285396
 H          1.4224138056       -3.7882546829        0.2798296010
 H          2.4647362844       -1.5594444709        0.3778316384
 H          1.6529741539        2.7457658852        1.8878364201
 H          3.9444733109        3.7052664413        2.0176863789
 H          3.0253184632        0.0419903608       -1.1576326122
 H          7.7513559322       -1.3206768980       -0.9201235526
 H          9.7169663677       -1.4363744658        0.6123340674
 H         10.1778546948        0.4414525983        2.1515577032
 H          8.6737781545        2.4332565874        2.1512761318
 H         -3.4309696309        2.2189377810        2.3086405693
 H         -4.7466166949        2.2877720788        4.3662266929
 H         -7.0509452668        3.2060529039        4.3286168758
 H         -7.9789326683        4.0507324826        2.2368947047
