104
 energy: -168.142529537603 gnorm: 0.000153040533 xtb: 6.7.1 (edcfbbe)
C           -8.24591147655723        3.01985915066425       -0.83957248503400
C           -7.06083981857037        3.83667755074475       -0.28659822152959
C           -7.54080579776470        5.23208052738144        0.16021266180862
C           -6.03667017429113        3.99928467038638       -1.38837724414121
C           -6.39478782719111        4.63896551710496       -2.56782881693516
C           -5.51097382046082        4.78124338961896       -3.62157585270784
C           -4.23345221523122        4.25091475564679       -3.51697541358488
C           -3.84929619750916        3.61233763447950       -2.35976675672317
C           -4.72914980731442        3.49979871412548       -1.27212812315780
N           -4.30921909739535        2.87423131575728       -0.11422468970480
C           -2.96800470726646        2.40933534242544       -0.02801600733885
C           -1.92527625953473        3.34319039992639        0.05812570806697
C           -0.60866559505268        2.93594473647134        0.15345927023711
C           -0.34215060240587        1.57382482622899        0.16079185954848
C           -1.39266957907309        0.62231720223711        0.04645121210423
C           -2.71306821123713        1.04700489181260       -0.03741279519501
C           -0.77403922270682       -0.66612702117854        0.04641448188985
C           -1.26984045406915       -1.96282127333704       -0.01836805236488
C           -0.36938893923962       -3.01431973145283        0.04328570319842
N           -0.84534845866912       -4.35291112806970       -0.02264513471644
C           -0.58889027360490       -5.09852646293634       -1.15664306988330
C            0.07712874117211       -4.50628200056926       -2.24083103580100
C            0.35623966959405       -5.22810827750552       -3.37896427002927
C           -0.03446856512558       -6.55636128943227       -3.46706577048608
C           -0.71913185577458       -7.13566629654727       -2.41468919310610
C           -1.01525306330843       -6.43320207011317       -1.25391803304940
C           -1.79750534243211       -7.11031868346033       -0.14995832647350
C           -3.16153827496236       -7.55302117210007       -0.71607784806554
C           -1.00374689876149       -8.33762113239464        0.34130823866671
C           -2.02946425627121       -6.18832327022171        1.02685569253187
C           -2.72963607932025       -6.65225165439383        2.13292133478683
C           -2.93954638405045       -5.86542397047913        3.25027650406264
C           -2.41963060864913       -4.57986632572311        3.28692373088648
C           -1.72154884978285       -4.09214271662098        2.20564185063624
C           -1.53535800972231       -4.87379938579507        1.05478370816772
C            1.00756965023453       -2.78598209745427        0.18188075612612
C            1.51531683109272       -1.50307372590286        0.24738978525703
C            0.62500627904110       -0.44157927709912        0.16210041986408
N            0.86458900355688        0.91337098862541        0.22826771079045
C            2.12594755949286        1.51291738062600        0.32513985469971
C            2.36635725261950        2.51186132276546        1.30783685055169
C            3.60649817151348        3.09136360601114        1.40374716129096
C            4.62827754848592        2.73879828813211        0.52515130891069
C            4.39347275411550        1.73280511622093       -0.43753122937771
C            3.15662999949182        1.12242825599108       -0.51724612525544
S            5.75090916107683        1.12061767566190       -1.38057936069292
O            5.36077927105416       -0.16850021158261       -1.93939947681654
O            6.21439987201402        2.08043463522853       -2.36277458194824
C            6.96075256267638        0.83814489812629       -0.12232897277593
C            7.56686046449231       -0.40228337543796        0.02224262816960
C            8.42849811008909       -0.63220722957419        1.07501775364792
C            8.66226797665850        0.37462970870138        2.02260202366234
C            8.03121706944542        1.59534075934201        1.90346169799882
C            7.19324942481203        1.84405574622667        0.82423562899543
S            6.26412383781848        3.34518550480711        0.71571278810331
O            6.35540486352370        4.03855341948227        1.99409308181557
O            6.68304031173591        4.13432389923219       -0.42762265000076
C           -5.15086901542270        2.69514914757427        0.96660976181036
C           -4.65838660869482        2.10767684833500        2.14227864754330
C           -5.48073500523880        1.89546239466803        3.22539443214465
C           -6.81331222033549        2.27598450096149        3.16554725928219
C           -7.29440766564313        2.89058012856704        2.02423995974531
C           -6.48873883091050        3.11972452066193        0.91653644491677
H           -8.70278487679000        3.52761048698201       -1.68359878365933
H           -7.90176724639348        2.04197537957783       -1.17093774958063
H           -9.00517218732819        2.87781989230122       -0.07650060858100
H           -7.96912569820804        5.77803287321564       -0.67489796220029
H           -8.29591940149186        5.15007984667701        0.93611433611183
H           -6.70380153205462        5.80601314708390        0.55360500662830
H           -7.39111878968602        5.03809420767616       -2.67400709234316
H           -5.81965045615755        5.28883886699986       -4.52249305808362
H           -3.53802082867865        4.33162006598386       -4.33857482648128
H           -2.85952690505196        3.19068760909755       -2.29165684384838
H           -2.16435688999126        4.39550742358594        0.05375058021902
H            0.18796740671639        3.65978262089682        0.21420766395056
H           -3.52238612615659        0.33872105674183       -0.12152464414700
H           -2.32717888190236       -2.15147483713570       -0.11947182125858
H            0.37288917751148       -3.47110120560568       -2.18419881529971
H            0.87530443469504       -4.75398112847677       -4.19808101608055
H            0.18370767190168       -7.13192042207647       -4.35346926018253
H           -1.03062697955997       -8.16410836395742       -2.50705504783718
H           -3.02914970392083       -8.24452626695544       -1.54249838451029
H           -3.75367109994693       -8.04654403324463        0.04856117669446
H           -3.71412980200620       -6.68737400492741       -1.07608729015066
H           -0.81987718507587       -9.02914345890006       -0.47536037639576
H           -0.04461411426628       -8.02233239351047        0.74791534630597
H           -1.54963091615216       -8.86482498584550        1.11786055759834
H           -3.12228428084475       -7.65677068221291        2.12883677920716
H           -3.49081729299066       -6.25664531902297        4.09142156636805
H           -2.55278480949871       -3.96089565577245        4.16100274646582
H           -1.30246915448718       -3.09998300629479        2.24765971052130
H            1.67407375967963       -3.63205000298002        0.24771767159041
H            2.57340462344118       -1.33610374107599        0.37253598721395
H            1.57930156720656        2.78162840880344        1.99315184203721
H            3.83108217896691        3.83036168152620        2.15746587843724
H            3.02095253421456        0.35722056522528       -1.26596884221530
H            7.34231647652620       -1.16102869797453       -0.71195718680753
H            8.91788809253865       -1.58823847925067        1.17465908857934
H            9.33235303861976        0.19103104030401        2.84772031826539
H            8.16555382196462        2.38480103908095        2.62728382697812
H           -3.61955515009519        1.82663431326336        2.20182881103119
H           -5.08190529006379        1.43929371101510        4.11856497409620
H           -7.46789253689724        2.10962412149277        4.00721799877107
H           -8.32688435506645        3.20174222388053        2.00267014222570
