104
 energy: -168.212406856156 gnorm: 0.000082161940 xtb: 6.7.1 (edcfbbe)
C           -8.15852519860830        3.35163061862231       -0.51428281629239
C           -6.87489029789520        4.15598818185193       -0.23467327461824
C           -7.21171532628062        5.64804092700818       -0.05260830272050
C           -5.94161162427134        4.00746477962980       -1.42218649437921
C           -6.35961615391958        4.42898024804992       -2.67713071664912
C           -5.55831365614554        4.30996108578393       -3.79823363455108
C           -4.30144354642516        3.74574311072611       -3.67328949919245
C           -3.86088320693526        3.31793046594131       -2.43834143216034
C           -4.66452357651209        3.44826908497394       -1.30130221881029
N           -4.19141821087542        3.01109508687534       -0.07459243005190
C           -2.87243749107659        2.48214897143447        0.00926959975441
C           -1.78800245799541        3.36096458582752        0.08961209257890
C           -0.48972894311293        2.89797632634923        0.18188182737755
C           -0.28890207983687        1.52500810566718        0.21207111338885
C           -1.37666588433680        0.63065061916263        0.09815560947854
C           -2.67478705724481        1.11074398024243       -0.00150419700174
C           -0.82179270405011       -0.69570088787442        0.09995552432039
C           -1.39533511530171       -1.95774003645520        0.04082771807812
C           -0.56245730431875       -3.06317271135812        0.10472863131686
N           -1.11795072213331       -4.37266607644073        0.04658161461439
C           -1.11306077600698       -5.05100444385752       -1.16171413307584
C           -0.57710307009858       -4.43585198397837       -2.29749270952455
C           -0.55261781526293       -5.08612394042526       -3.51348434589432
C           -1.06871881596407       -6.36510831130300       -3.62060296150642
C           -1.61034155417348       -6.97079520856380       -2.50137891862990
C           -1.64730386756585       -6.34023545669219       -1.26502213598599
C           -2.26699089026559       -7.05611179332722       -0.07877680385707
C           -3.74070189909419       -7.36416916036210       -0.40459383237800
C           -1.49290482170829       -8.36445334992409        0.16983419984881
C           -2.21190796303069       -6.21271609338013        1.18185211688295
C           -2.73162914982330       -6.71845270680429        2.36581596407101
C           -2.69885536307155       -6.00283742555276        3.54891897207591
C           -2.12475831132774       -4.74432890103582        3.56131564185583
C           -1.60157812316760       -4.21704724083899        2.39927422201807
C           -1.64509856299957       -4.93342651297338        1.19903528342946
C            0.82064478056934       -2.91017004969565        0.24073463816372
C            1.40710310195908       -1.66039727844389        0.29409595777535
C            0.57980585514319       -0.54956051438828        0.20256537365978
N            0.89339834315492        0.80051098880938        0.27524568985151
C            2.16994153699699        1.33778277748746        0.37145037833362
C            2.44154987363329        2.37278759242447        1.27402888860568
C            3.71101349004750        2.91350042757199        1.35993026921425
C            4.72538072387889        2.42557800531325        0.55181083123348
C            4.46666743613589        1.39338522993003       -0.33008749567482
C            3.20555439544999        0.84593766886499       -0.43152942674612
S            5.79466973023859        0.74733064202324       -1.35163983617499
O            5.42876750755326       -0.58870676687429       -1.75921305871988
O            6.09215321514253        1.67734327938668       -2.40794247683377
C            7.18904758546205        0.63307804391578       -0.22946273469811
C            7.99510110916575       -0.49152738234314       -0.23547425761508
C            9.07287083866293       -0.56142795025014        0.63608268614907
C            9.32993563185704        0.48209227028684        1.51294919533307
C            8.51091389210273        1.60236201932407        1.52345702751499
C            7.44484799989085        1.67237520377302        0.64443398851625
S            6.37623662950702        3.11241053585444        0.63545886001702
O            6.52008171661154        3.79669235143486        1.89841482173311
O            6.63157881618750        3.89409196238351       -0.54591084938558
C           -4.95233522650589        3.10644447869746        1.07983266518985
C           -4.41955478632069        2.67195935967455        2.29762046364137
C           -5.15297860993866        2.75032008947272        3.46305702741265
C           -6.43521002894493        3.26875587558503        3.43596592043146
C           -6.96081284248527        3.70782399711027        2.23433052445580
C           -6.24482641877454        3.64174662835211        1.04669574798841
H           -8.65349196563491        3.71115804801917       -1.41221318893147
H           -7.91389394992616        2.29999880076968       -0.65480472946829
H           -8.85615622545134        3.43372445909189        0.31466631394228
H           -7.66858085727423        6.05498619178079       -0.95049869297701
H           -7.90105550497184        5.79190763093305        0.77482115711076
H           -6.30321234233387        6.21097064668109        0.15562164773789
H           -7.34072577880663        4.86497109197015       -2.79105612354228
H           -5.91546067715147        4.65033929222488       -4.75877083070613
H           -3.66105957594989        3.63622893533204       -4.53657733709499
H           -2.88163489080909        2.87313323738376       -2.34981262072723
H           -1.98039360004698        4.42306794777891        0.07051060498098
H            0.33433677960209        3.59234092172311        0.21410835586416
H           -3.51439044608594        0.43862092651161       -0.08640824117987
H           -2.46372566929517       -2.08276352361321       -0.04205272567015
H           -0.17748318074455       -3.43616049494344       -2.22329844526589
H           -0.13043459069025       -4.59080509171643       -4.37585284630872
H           -1.05498494222380       -6.88630820286364       -4.56618492722407
H           -2.01596938812470       -7.96630914097288       -2.60173646829764
H           -3.82021038075923       -7.98213296135987       -1.29475691533887
H           -4.21821321588567       -7.88959315241765        0.41789099777641
H           -4.28324595369672       -6.43679884968376       -0.58110261193787
H           -1.52160565441572       -9.00481827052218       -0.70740980435684
H           -0.45192334673180       -8.14168457587108        0.39847573272601
H           -1.91755194072163       -8.91383484986997        1.00549381684674
H           -3.17688164021859       -7.70198912597900        2.37217864546534
H           -3.11431469087401       -6.42676939381999        4.45097623933389
H           -2.08176403803774       -4.17042899627847        4.47557162716254
H           -1.15083904198058       -3.23675695902195        2.41742519115899
H            1.43553005615842       -3.79511932628568        0.30462035308069
H            2.47434198426973       -1.56562424256101        0.41468969343516
H            1.65938466983240        2.73284056470435        1.92366146840384
H            3.94403423141722        3.70189112647915        2.05792977975342
H            3.04222145017088        0.05483978153779       -1.14579377966401
H            7.75734604559653       -1.29166624504611       -0.91863261491108
H            9.70703386577833       -1.43423050418831        0.63145609774204
H           10.16517401392998        0.42535798477751        2.19338171734730
H            8.67195534727984        2.42487379344328        2.20237276486997
H           -3.41877400419243        2.26955936660719        2.32707788634970
H           -4.72016840465750        2.40709732154230        4.39148411337986
H           -7.02111156337276        3.33473377206693        4.34060643496386
H           -7.96050705088281        4.11554580811604        2.22881306703698
