  90
  -138.899819849000       0.189506154106370      !
 C         -6.8704925458       -2.7765915864       -1.9619938652
 C         -5.6391766831       -2.4052333288       -2.4773193253
 C         -4.4731865448       -2.7453804410       -1.8203063883
 C         -4.5234574786       -3.4605286504       -0.6230376197
 N         -3.3473257167       -3.8011286298        0.0513891084
 C         -3.2572995001       -5.0193742783        0.7322450942
 C         -3.8465862508       -6.1693897481        0.2059862415
 C         -3.7564169460       -7.3695064195        0.8831703950
 C         -3.0736980053       -7.4474753763        2.0862763120
 C         -2.4822620257       -6.3097672860        2.6107781985
 C         -2.5731791550       -5.1031147750        1.9452297850
 C         -2.2604262382       -2.9175199867        0.0565836553
 C         -0.9530826674       -3.4257649449       -0.0154144919
 C          0.1478364003       -2.5978702048       -0.0108993925
 C         -0.0625943560       -1.2264406600        0.0604362148
 C         -1.3754858025       -0.6992784092        0.1037361824
 C         -2.4727398435       -1.5439011421        0.1155491792
 C         -1.2369001167        0.7300875823        0.1113992917
 C         -2.1505255787        1.7693074776        0.1566024192
 C         -1.6775147422        3.0776796755        0.1492617478
 N         -2.5776766786        4.1508470878        0.1660665641
 C         -3.7792996527        4.0605847479       -0.5427428749
 C         -3.8290415305        3.4003578091       -1.7711130978
 C         -5.0204180520        3.3057428479       -2.4628138798
 C         -6.1769914669        3.8711123162       -1.9508167080
 C         -6.1325433795        4.5323517128       -0.7341585687
 C         -4.9479044350        4.6254760490       -0.0305041218
 C         -2.2805301752        5.3026095001        0.9010239498
 C         -2.6376161765        6.5617838275        0.4174735170
 C         -2.3430579571        7.6964513482        1.1474770782
 C         -1.6835939279        7.5985893714        2.3620868536
 C         -1.3225440253        6.3510698927        2.8446302006
 C         -1.6191216403        5.2096467285        2.1260041559
 C         -0.2957505438        3.3271951487        0.1257629950
 C          0.6248127038        2.3026254038        0.0970584602
 C          0.1528615203        0.9962402271        0.0688364102
 N          0.8465628467       -0.1927897148        0.0426544535
 C          2.2436549360       -0.3282425806       -0.0051296606
 C          2.9846108869        0.3650415472       -0.9587416221
 C          4.3563858418        0.2384896087       -0.9961512492
 C          5.0320788739       -0.5903319666       -0.0953527988
 C          6.4854845468       -0.7220966267       -0.1416159259
 C          7.1055307887       -1.9355449231        0.1531888979
 C          8.4782785030       -2.0726447727        0.0950539960
 C          9.3025745323       -0.9976861830       -0.2464732004
 N         10.6243968229       -1.0910060420       -0.3031694261
 C         11.3683193917       -0.0380412497       -0.6282266589
 C         10.7716728657        1.1747675659       -0.9139629356
 N          9.4558649997        1.3096231686       -0.8747558848
 C          8.6710459769        0.2747671116       -0.5516002673
 C          7.2898097359        0.3706897821       -0.4940968303
 C          4.2729528245       -1.2858563260        0.8503354393
 C          2.9016530804       -1.1556652309        0.9010609080
 C         -5.7666362622       -3.8283300005       -0.1067001237
 C         -6.9263479173       -3.4911466206       -0.7764010001
 H         -7.7793541731       -2.5116084255       -2.4802901446
 H         -5.5853180507       -1.8523237552       -3.4035637922
 H         -3.5145812184       -2.4642190726       -2.2310482125
 H         -4.3677503892       -6.1140168752       -0.7385613849
 H         -4.2119522849       -8.2534424822        0.4616289368
 H         -3.0011162940       -8.3884419532        2.6098763388
 H         -1.9517178463       -6.3602879736        3.5501772551
 H         -2.1200104153       -4.2151134042        2.3609239626
 H         -0.8161890211       -4.4943509291       -0.0871519729
 H          1.1433964699       -3.0068527275       -0.0865546439
 H         -3.4747295653       -1.1456367374        0.1647156412
 H         -3.2106941085        1.5708421054        0.1983930054
 H         -2.9268176601        2.9682729329       -2.1783913431
 H         -5.0441152711        2.7921919767       -3.4126782693
 H         -7.1062063885        3.7953316834       -2.4946298511
 H         -7.0305370493        4.9698056385       -0.3232932280
 H         -4.9193517174        5.1301957138        0.9240668646
 H         -3.1410451409        6.6414005386       -0.5349233004
 H         -2.6213475646        8.6653368372        0.7597646283
 H         -1.4509447086        8.4881493925        2.9272905700
 H         -0.8109055329        6.2650689948        3.7919306811
 H         -1.3443556714        4.2373455827        2.5079821565
 H          0.0464826623        4.3511778552        0.1272073769
 H          1.6825777695        2.5149366039        0.0934341057
 H          2.4739337296        0.9866793648       -1.6796061523
 H          4.9155824865        0.7648946822       -1.7546299799
 H          6.5037836931       -2.7983641458        0.3973415619
 H          8.9496403745       -3.0197071478        0.3075865943
 H         12.4377793357       -0.1694763659       -0.6557920779
 H         11.3545984765        2.0438560840       -1.1759511887
 H          6.8476722165        1.3332748249       -0.6980324399
 H          4.7702991193       -1.9130656992        1.5748199725
 H          2.3312878076       -1.6782316571        1.6551264197
 H         -5.8146772832       -4.3740704288        0.8242221703
 H         -7.8815287131       -3.7812187537       -0.3640150079
  90
  -138.899747522200       0.175543285374414      !
 C         -6.8799942653       -2.9054496851       -1.7177091939
 C         -5.6883250148       -2.5239423718       -2.3124839556
 C         -4.4801888717       -2.8168671718       -1.7113485392
 C         -4.4470757768       -3.4941640171       -0.4916857406
 N         -3.2264830319       -3.7847091204        0.1245877462
 C         -3.0620095575       -4.9755822231        0.8377035248
 C         -3.6605678804       -6.1556256300        0.3948689566
 C         -3.4952891934       -7.3284940431        1.1048791757
 C         -2.7277454781       -7.3494642066        2.2581420107
 C         -2.1262784070       -6.1819668930        2.6991786361
 C         -2.2916634811       -5.0021665161        2.0008215444
 C         -2.1679961104       -2.8703798802        0.0399483658
 C         -0.8532986128       -3.3403128267       -0.1115240670
 C          0.2191148076       -2.4795641475       -0.1943748250
 C         -0.0289685241       -1.1139777238       -0.1290080710
 C         -1.3521179734       -0.6265723818       -0.0061810045
 C         -2.4193297851       -1.5032494097        0.0903447403
 C         -1.2582405956        0.8060396067       -0.0206630876
 C         -2.1993875613        1.8160409138        0.0817053062
 C         -1.7690749201        3.1381748956        0.0399508001
 N         -2.6984495689        4.1835072773        0.1215026566
 C         -3.9405476626        4.0602273613       -0.5068704440
 C         -4.0535966604        3.3913047255       -1.7264818127
 C         -5.2844609540        3.2625979507       -2.3387435811
 C         -6.4193669265        3.8024488213       -1.7556040047
 C         -6.3126634292        4.4717626485       -0.5473690814
 C         -5.0877425115        4.5983171337        0.0777136685
 C         -2.3856992208        5.3376438848        0.8464529281
 C         -2.8051775900        6.5908116272        0.3990445623
 C         -2.4919747525        7.7268650980        1.1190861359
 C         -1.7525696331        7.6364414178        2.2873369872
 C         -1.3295939710        6.3949198512        2.7336707578
 C         -1.6437170981        5.2520667907        2.0249762838
 C         -0.4007723826        3.4303489457       -0.0796110903
 C          0.5478210505        2.4350270220       -0.1673592239
 C          0.1167206221        1.1143571827       -0.1560498732
 N          0.8438850169       -0.0531980711       -0.2179457318
 C          2.2414499616       -0.1451961382       -0.3298560410
 C          2.9151346500        0.5502879381       -1.3301969970
 C          4.2876586183        0.4660989993       -1.4279303244
 C          5.0307720928       -0.3147197451       -0.5378663479
 C          6.4847796518       -0.4028783772       -0.6419294774
 C          7.1173947039       -0.3805425704       -1.8841829133
 C          8.4899358346       -0.4850575343       -1.9927065938
 C          9.3019848050       -0.6041749686       -0.8622346069
 N         10.6229523072       -0.7016028682       -0.9291338694
 C         11.3549186065       -0.8084822285        0.1757375015
 C         10.7463843262       -0.8184067854        1.4158985440
 N          9.4307364649       -0.7305165078        1.5270774663
 C          8.6575688202       -0.6224527864        0.4398996044
 C          7.2770040757       -0.5247303362        0.5083882913
 C          4.3383494065       -1.0109623923        0.4574491171
 C          2.9666934859       -0.9291742257        0.5634428868
 C         -5.6506118150       -3.8713581080        0.1052435094
 C         -6.8531719667       -3.5815034846       -0.5087792872
 H         -7.8221473743       -2.6777449858       -2.1924522113
 H         -5.6987615486       -2.0011914067       -3.2575332036
 H         -3.5526192855       -2.5281446960       -2.1833006787
 H         -4.2491556373       -6.1449350549       -0.5107589134
 H         -3.9626446671       -8.2352184986        0.7498586198
 H         -2.5988177651       -8.2687984296        2.8085149811
 H         -1.5304072966       -6.1877015194        3.5999102640
 H         -1.8317079774       -4.0905102012        2.3530736919
 H         -0.6884324400       -4.4055807323       -0.1736013646
 H          1.2199963860       -2.8595683540       -0.3290342216
 H         -3.4280273227       -1.1348832216        0.1994757833
 H         -3.2473165968        1.5844906732        0.1968826738
 H         -3.1692752822        2.9792424193       -2.1898143882
 H         -5.3564619870        2.7438092148       -3.2832675150
 H         -7.3793014724        3.7021830025       -2.2387216548
 H         -7.1925151480        4.8912365267       -0.0820009948
 H         -5.0110129820        5.1087950774        1.0264904891
 H         -3.3712616713        6.6648886615       -0.5179656121
 H         -2.8200833732        8.6912277576        0.7601423630
 H         -1.5073823110        8.5270514045        2.8454541041
 H         -0.7573151192        6.3143299935        3.6459360827
 H         -1.3225421762        4.2839812308        2.3802937071
 H         -0.0918624283        4.4645976784       -0.1046792218
 H          1.5956146740        2.6805406618       -0.2438504646
 H          2.3537063615        1.1481842892       -2.0332450409
 H          4.7968516921        1.0282545171       -2.1962269577
 H          6.5254551643       -0.3164895268       -2.7851088610
 H          8.9703177964       -0.4852470912       -2.9588906921
 H         12.4241355414       -0.8839954593        0.0629416305
 H         11.3194210377       -0.9002716968        2.3260976936
 H          6.8261411081       -0.5104582593        1.4882738175
 H          4.8857206258       -1.6357730680        1.1466953527
 H          2.4469362796       -1.4615633197        1.3466635126
 H         -5.6341830233       -4.3868266590        1.0543085739
 H         -7.7770369873       -3.8781398207       -0.0345183190
  90
  -138.899786693900       0.182972696764649      !
 C         -6.9095980228       -2.7824604635       -1.8373332794
 C         -5.6967561501       -2.4303647330       -2.4068806588
 C         -4.5087072249       -2.7669324544       -1.7887006715
 C         -4.5173496757       -3.4590128735       -0.5769674233
 N         -3.3172231224       -3.7914997084        0.0583441643
 C         -3.2041594910       -4.9927642059        0.7647999962
 C         -3.8189238407       -6.1523985877        0.2913020532
 C         -3.7040818766       -7.3364754296        0.9925246467
 C         -2.9716826563       -7.3888101161        2.1675567927
 C         -2.3556192610       -6.2413946684        2.6399186522
 C         -2.4709575468       -5.0503448273        1.9504475753
 C         -2.2345389139       -2.9038953414        0.0090229342
 C         -0.9259656259       -3.4036516443       -0.0907904151
 C          0.1675460237       -2.5670599333       -0.1449524977
 C         -0.0527069484       -1.1955584602       -0.1207971869
 C         -1.3657511109       -0.6794569470       -0.0065753843
 C         -2.4544019487       -1.5314141406        0.0633472997
 C         -1.2372395494        0.7498804505        0.0272085856
 C         -2.1584801286        1.7791095795        0.1153215567
 C         -1.6992257407        3.0918754658        0.0873254929
 N         -2.6092574721        4.1546675954        0.1609148943
 C         -3.8484370104        4.0489733303       -0.4784654761
 C         -3.9551027844        3.4017758470       -1.7100452903
 C         -5.1826469806        3.2870255766       -2.3320795911
 C         -6.3195907674        3.8191948721       -1.7460636559
 C         -6.2188724894        4.4673048230       -0.5256381556
 C         -4.9973545333        4.5802460832        0.1086745318
 C         -2.2870416078        5.3030228844        0.8890099799
 C         -2.7072962157        6.5598616581        0.4519356081
 C         -2.3888594325        7.6909159234        1.1772639638
 C         -1.6423094662        7.5928279847        2.3404129104
 C         -1.2173028914        6.3482408391        2.7757181549
 C         -1.5372776358        5.2100076367        2.0621425007
 C         -0.3250945670        3.3552566136       -0.0319586643
 C          0.6037850996        2.3400895296       -0.1048419099
 C          0.1475744318        1.0283457563       -0.0630651035
 N          0.8475971811       -0.1539112169       -0.1509550110
 C          2.2445535772       -0.2797495701       -0.2270567195
 C          2.8280598815       -1.0657069204       -1.2171986641
 C          4.1984803198       -1.2015730772       -1.2755091524
 C          5.0308193449       -0.5551456519       -0.3566195850
 C          6.4813171415       -0.7122746366       -0.4089629307
 C          7.0558519961       -1.9191319656       -0.8065210615
 C          8.4257117796       -2.0892238605       -0.8302342193
 C          9.2931423670       -1.0558571180       -0.4678785973
 N         10.6131606365       -1.1836624151       -0.4806009047
 C         11.3989884697       -0.1701680607       -0.1298571351
 C         10.8484818246        1.0373366531        0.2540322572
 N          9.5362047343        1.2054793393        0.2857297541
 C          8.7100298680        0.2103735438       -0.0585655983
 C          7.3304344965        0.3406059037       -0.0400331306
 C          4.4292128640        0.2414485199        0.6227724338
 C          3.0594945844        0.3752469004        0.6926162627
 C         -5.7420308681       -3.8077739541       -0.0061616184
 C         -6.9243617156       -3.4740393406       -0.6369115834
 H         -7.8360702002       -2.5199832956       -2.3248214479
 H         -5.6747617693       -1.8960577753       -3.3452742261
 H         -3.5648506713       -2.5003117147       -2.2410619522
 H         -4.3803055143       -6.1166008717       -0.6308673233
 H         -4.1827230028       -8.2274926507        0.6137556786
 H         -2.8815722888       -8.3171162209        2.7106784586
 H         -1.7870208747       -6.2713425434        3.5576863367
 H         -1.9992420676       -4.1544239121        2.3266495634
 H         -0.7808530220       -4.4729276018       -0.1271257972
 H          1.1656833908       -2.9720344033       -0.2059977433
 H         -3.4553209867       -1.1402100772        0.1639883426
 H         -3.2138249612        1.5693460986        0.2000763929
 H         -3.0687917392        2.9948943710       -2.1743265233
 H         -5.2501643325        2.7849807509       -3.2859751611
 H         -7.2769730729        3.7291889932       -2.2361888785
 H         -7.1007755171        4.8800654487       -0.0583304261
 H         -4.9240176100        5.0741235545        1.0665174717
 H         -3.2787544571        6.6406777929       -0.4611239118
 H         -2.7189865831        8.6577095757        0.8268061407
 H         -1.3938019664        8.4797873092        2.9028795680
 H         -0.6393456941        6.2613020743        3.6839806477
 H         -1.2154802637        4.2395175628        2.4103293051
 H          0.0033368401        4.3828404674       -0.0770131810
 H          1.6538181266        2.5628501375       -0.2146046262
 H          2.1997888415       -1.5510250478       -1.9498283296
 H          4.6356388227       -1.7954750507       -2.0640067193
 H          6.4219875984       -2.7530567616       -1.0689269239
 H          8.8614442193       -3.0320905027       -1.1226475126
 H         12.4647434635       -0.3287296754       -0.1600165687
 H         11.4652184234        1.8753678648        0.5388958210
 H          6.9246896336        1.2991931729        0.2430736909
 H          5.0461845196        0.7333395904        1.3591935011
 H          2.6080952373        0.9704240524        1.4729831063
 H         -5.7575691286       -4.3349719806        0.9364746576
 H         -7.8649862569       -3.7484368376       -0.1825204456
  90
  -138.899763565900       0.178548989295357      !
 C         -3.1161589570       -7.3550193049        2.2707436003
 C         -2.5193576813       -6.1970349617        2.7422800555
 C         -2.6014770920       -5.0230418187        2.0196898405
 C         -3.2816892040       -4.9931444923        0.8017371294
 N         -3.3607486054       -3.8080052094        0.0643911150
 C         -4.5277068334       -3.4882692681       -0.6348683040
 C         -4.4589154948       -2.8168135112       -1.8563319460
 C         -5.6147443118       -2.4961869890       -2.5404190668
 C         -6.8541770485       -2.8433795124       -2.0278439936
 C         -6.9285362187       -3.5128708948       -0.8172322138
 C         -5.7791322445       -3.8307240843       -0.1207940960
 C         -2.2720556846       -2.9257887136        0.0504501502
 C         -0.9656133307       -3.4380123599       -0.0044400268
 C          0.1373213781       -2.6126626494       -0.0024033770
 C         -0.0705833680       -1.2400332598        0.0533433240
 C         -1.3830218757       -0.7097023464        0.0721381843
 C         -2.4825338086       -1.5513499348        0.0814997892
 C         -1.2419514184        0.7191745677        0.0814387039
 C         -2.1535768816        1.7610303532        0.1092304553
 C         -1.6749892161        3.0663259062        0.1351677160
 N         -2.5725630083        4.1445776319        0.1417812760
 C         -2.3248301197        5.2431697498        0.9689127978
 C         -2.6418648612        6.5361906799        0.5513606231
 C         -2.3940271300        7.6141287440        1.3782035548
 C         -1.8212122522        7.4260913934        2.6256351368
 C         -1.4969238823        6.1451403035        3.0419547719
 C         -1.7469420740        5.0597200916        2.2257603583
 C         -3.7052378288        4.1031778580       -0.6738463684
 C         -3.6518155451        3.4817047635       -1.9226294988
 C         -4.7731420224        3.4359625200       -2.7267974258
 C         -5.9617370919        4.0118920372       -2.3084877079
 C         -6.0208570658        4.6307166814       -1.0702257477
 C         -4.9074819464        4.6744343860       -0.2544052120
 C         -0.2932675989        3.3130450759        0.1587932807
 C          0.6248805293        2.2862335669        0.1336275355
 C          0.1489985166        0.9822510289        0.0725030979
 N          0.8406319329       -0.2079461128        0.0517976877
 C          2.2383940554       -0.3396886638        0.0077377981
 C          2.9767958256        0.3637377895       -0.9405870106
 C          4.3490565955        0.2450768829       -0.9777286189
 C          5.0288780899       -0.5851672512       -0.0811674123
 C          6.4829128023       -0.7081153373       -0.1299708480
 C          7.1115765120       -1.9177452498        0.1624246672
 C          8.4846657375       -2.0474947202        0.0961510041
 C          9.3012012077       -0.9693368082       -0.2537646915
 N         10.6227795716       -1.0565453741       -0.3227806429
 C         11.3589235891       -0.0010534492       -0.6573180150
 C         10.7539787108        1.2087820929       -0.9388212374
 N          9.4381045756        1.3377393160       -0.8865492753
 C          8.6608617520        0.2998130892       -0.5549722627
 C          7.2797805201        0.3889426852       -0.4867850770
 C          4.2723559982       -1.2909093431        0.8591075737
 C          2.8999884075       -1.1692293482        0.9091130056
 C         -3.8758792258       -6.1636493841        0.3288380597
 C         -3.7943665213       -7.3305866832        1.0628128199
 H         -3.0523679320       -8.2699183703        2.8397751802
 H         -1.9932631434       -6.2052974871        3.6854560345
 H         -2.1453654936       -4.1185314559        2.3945199825
 H         -3.4936930486       -2.5550054825       -2.2644402953
 H         -5.5464690118       -1.9784859832       -3.4859514594
 H         -7.7551043212       -2.5937724336       -2.5672496475
 H         -7.8904281121       -3.7825416031       -0.4064751456
 H         -5.8418219303       -4.3405459906        0.8294027514
 H         -0.8313610197       -4.5081837815       -0.0557724569
 H          1.1325250100       -3.0251269250       -0.0625313717
 H         -3.4842246781       -1.1506783703        0.1144089016
 H         -3.2156512330        1.5681951187        0.1152906100
 H         -3.0765115159        6.6872386932       -0.4259047339
 H         -2.6421834584        8.6101260648        1.0420133916
 H         -1.6280932077        8.2716423519        3.2679808578
 H         -1.0534898613        5.9883669477        4.0142064928
 H         -1.5032167401        4.0606983690        2.5562802674
 H         -2.7236388170        3.0425754614       -2.2575312964
 H         -4.7154123587        2.9549182677       -3.6921602582
 H         -6.8349086403        3.9784287737       -2.9420244680
 H         -6.9447754417        5.0763847096       -0.7322151927
 H         -4.9620528271        5.1454745003        0.7159894564
 H          0.0492965974        4.3364249067        0.1931318740
 H          1.6832540193        2.4940019778        0.1604079301
 H          2.4633801985        0.9874674874       -1.6577418165
 H          4.9054916494        0.7789401342       -1.7329419506
 H          6.5165016407       -2.7835026267        0.4123173100
 H          8.9622621781       -2.9917586812        0.3072530505
 H         12.4285294660       -0.1280939266       -0.6963734818
 H         11.3303755520        2.0798760260       -1.2085116056
 H          6.8318605274        1.3493262539       -0.6883541002
 H          4.7722993774       -1.9186465372        1.5813398989
 H          2.3323599472       -1.6983109412        1.6606588153
 H         -4.3950584810       -6.1502321179       -0.6183686626
 H         -4.2569103479       -8.2302434095        0.6842366792
  90
  -138.899560900300       0.144084988145366      !
 C         -6.5160517923       -2.6770118576       -2.8033731483
 C         -5.2414995529       -2.2634289587       -3.1552854230
 C         -4.1517131474       -2.6243322522       -2.3881312544
 C         -4.3241150833       -3.4050331167       -1.2445214246
 N         -3.2228195143       -3.7659678176       -0.4628700653
 C         -3.1693264720       -5.0195913906        0.1512660735
 C         -3.6962435298       -6.1451586101       -0.4833535496
 C         -3.6405335919       -7.3804435383        0.1312260752
 C         -3.0543312669       -7.5190137886        1.3788520128
 C         -2.5237313432       -6.4062321293        2.0108067736
 C         -2.5812346238       -5.1649909083        1.4084098475
 C         -2.1656073726       -2.8606693790       -0.2951317505
 C         -0.8421730897       -3.3295655566       -0.3033109426
 C          0.2285231834       -2.4783495906       -0.1404711038
 C         -0.0304487961       -1.1244635416        0.0339456417
 C         -1.3584496812       -0.6344664285        0.0148568409
 C         -2.4258708463       -1.5032724615       -0.1391480954
 C         -1.2662371012        0.7898836519        0.1732453041
 C         -2.2126217885        1.7992805425        0.2334812538
 C         -1.7819570301        3.1088082952        0.4187525522
 N         -2.7112729632        4.1554061563        0.4886726028
 C         -3.9309399406        3.9639302621        1.1433354630
 C         -4.0043370028        3.1642836877        2.2845364317
 C         -5.2128946902        2.9751503376        2.9253305976
 C         -6.3637472151        3.5814260041        2.4484056752
 C         -6.2964700175        4.3782350219        1.3170072963
 C         -5.0944222003        4.5673528271        0.6640635846
 C         -2.4137173345        5.3873563464       -0.1015282194
 C         -1.7052788883        5.4418227225       -1.3023783744
 C         -1.4080846248        6.6603658505       -1.8802441596
 C         -1.8141508322        7.8405113585       -1.2787918050
 C         -2.5192167167        7.7922584653       -0.0870479319
 C         -2.8156078758        6.5791433818        0.5025613139
 C         -0.4121893697        3.3890332949        0.5510729415
 C          0.5405727879        2.3968344194        0.4807262637
 C          0.1132432468        1.0907691896        0.2753189034
 N          0.8440011395       -0.0727310277        0.1909169749
 C          2.2447235323       -0.1708807101        0.2336394993
 C          3.0310096828        0.6260947039       -0.5941524791
 C          4.4046423010        0.5192515738       -0.5571958714
 C          5.0379841388       -0.3845636835        0.3010551932
 C          6.4934941218       -0.5000930544        0.3304112212
 C          7.1670987339       -0.7689067970        1.5211358839
 C          8.5438841512       -0.8656918326        1.5608466400
 C          9.3172729782       -0.7120030583        0.4077394107
 N         10.6400521414       -0.8072603691        0.4075646897
 C         11.3338135466       -0.6583675632       -0.7168585353
 C         10.6826337463       -0.4007234341       -1.9076938574
 N          9.3646784531       -0.2909090159       -1.9504899829
 C          8.6291189964       -0.4346535787       -0.8416417487
 C          7.2469842774       -0.3346545409       -0.8402538247
 C          4.2344079008       -1.1753235520        1.1274600387
 C          2.8601866237       -1.0712258118        1.0990546451
 C         -5.6105626323       -3.8139105004       -0.8916324701
 C         -6.6929110314       -3.4538412509       -1.6700363099
 H         -7.3650376874       -2.3954835654       -3.4073436875
 H         -5.0929108370       -1.6618586908       -4.0398839258
 H         -3.1578396863       -2.3100442438       -2.6710984812
 H         -4.1420606558       -6.0431517388       -1.4618704776
 H         -4.0501196515       -8.2436097657       -0.3723863821
 H         -3.0107704034       -8.4868905032        1.8544110849
 H         -2.0678984034       -6.5038048324        2.9851584230
 H         -2.1773719251       -4.2968611629        1.9083350780
 H         -0.6678752065       -4.3847601899       -0.4518347970
 H          1.2391993526       -2.8548053179       -0.1706415228
 H         -3.4411291006       -1.1366429213       -0.1409419352
 H         -3.2645404877        1.5762793760        0.1395568251
 H         -3.1068406237        2.6997578715        2.6658596232
 H         -5.2544245300        2.3562839151        3.8095632171
 H         -7.3057898138        3.4337344538        2.9540326728
 H         -7.1893899220        4.8499121618        0.9339382417
 H         -5.0478517680        5.1791969350       -0.2248683266
 H         -1.3967718974        4.5223639910       -1.7779207673
 H         -0.8615262724        6.6882796773       -2.8113899327
 H         -1.5831847092        8.7907743691       -1.7354372115
 H         -2.8336377898        8.7074553375        0.3925874530
 H         -3.3543106911        6.5446719230        1.4381904768
 H         -0.1072992115        4.4108573389        0.7206645202
 H          1.5869810914        2.6296821083        0.6029888532
 H          2.5556252605        1.3176833941       -1.2742774565
 H          5.0018756928        1.1551956839       -1.1927672803
 H          6.6093739092       -0.8700033808        2.4402703598
 H          9.0587793636       -1.0569808354        2.4895594176
 H         12.4063918347       -0.7475691834       -0.6592760191
 H         11.2236403625       -0.2797821235       -2.8331304442
 H          6.7587145395       -0.1578811462       -1.7857756399
 H          4.6951206117       -1.8941073026        1.7882184189
 H          2.2533432693       -1.6804274002        1.7528701064
 H         -5.7533245426       -4.4093400966       -0.0018363684
 H         -7.6836023471       -3.7751269897       -1.3840659387
  90
  -138.899458907100       0.129343886313845      !
 C         -6.5962791923       -3.1553369699       -2.0695162550
 C         -5.3337691665       -2.7992392381       -2.5152461739
 C         -4.2251134565       -3.0102084328       -1.7197478504
 C         -4.3653419228       -3.5802163378       -0.4534949494
 N         -3.2437031088       -3.7925767914        0.3515471463
 C         -3.1606194825       -4.9089314342        1.1861143630
 C         -3.7095143774       -6.1324727078        0.7999527661
 C         -3.6233373136       -7.2281933145        1.6358938231
 C         -2.9838111528       -7.1294145602        2.8610896804
 C         -2.4289492835       -5.9195876958        3.2456246992
 C         -2.5164156365       -4.8156665125        2.4207143853
 C         -2.1787981475       -2.8794644090        0.3060442234
 C         -0.8583777726       -3.3548399678        0.2770760958
 C          0.2177092242       -2.4970044191        0.2132431388
 C         -0.0340512211       -1.1308185481        0.1840791122
 C         -1.3615614021       -0.6387783689        0.2031733265
 C         -2.4336588042       -1.5132231899        0.2687308329
 C         -1.2636004744        0.7920433471        0.1321720611
 C         -2.2046410832        1.8082864298        0.1397792930
 C         -1.7644077483        3.1258739672        0.0804391865
 N         -2.6908107492        4.1792571965        0.1069736902
 C         -2.5014169675        5.2872906620       -0.7218259775
 C         -1.9553089918        5.1260287189       -1.9960306215
 C         -1.7617312092        6.2212672933       -2.8143121631
 C         -2.1125610412        7.4904493395       -2.3836217785
 C         -2.6546689442        7.6565926149       -1.1193881147
 C         -2.8451854871        6.5689930906       -0.2901167209
 C         -3.7815458123        4.1148710761        0.9775566040
 C         -5.0193428390        4.6430528051        0.6085452937
 C         -6.0901792183        4.5797303957        1.4784759837
 C         -5.9518695786        3.9841208196        2.7217905261
 C         -4.7274174283        3.4506229375        3.0901776778
 C         -3.6483728445        3.5154618536        2.2309254019
 C         -0.3915107849        3.4113311746        0.0149383547
 C          0.5553750875        2.4109511571        0.0026281211
 C          0.1173854514        1.0932734771        0.0530758788
 N          0.8441792728       -0.0752125905        0.0885676023
 C          2.2449134615       -0.1710506787        0.0298682450
 C          2.9497130175        0.4710919595       -0.9847303895
 C          4.3238302964        0.3790524586       -1.0387234503
 C          5.0381414423       -0.3555006232       -0.0875589738
 C          6.4946202492       -0.4451407484       -0.1480810341
 C          7.2584623282       -0.4866240596        1.0174683739
 C          8.6371846939       -0.5474678974        0.9700811213
 C          9.3222538514       -0.5835363185       -0.2467261667
 N         10.6442503197       -0.6476724256       -0.3298408749
 C         11.2521370747       -0.6849907717       -1.5115808557
 C         10.5106221117       -0.6581030403       -2.6769318708
 N          9.1899291169       -0.5872266729       -2.6389566691
 C          8.5391631027       -0.5472091610       -1.4703417880
 C          7.1580136488       -0.4763646456       -1.3827378286
 C          4.3153810684       -0.9971407234        0.9223330744
 C          2.9411352611       -0.9069536551        0.9847317035
 C         -5.6404382551       -3.9286056595       -0.0061689432
 C         -6.7418309529       -3.7202625020       -0.8128956270
 H         -7.4598554436       -2.9935172731       -2.6963107154
 H         -5.2093801273       -2.3616161504       -3.4948237108
 H         -3.2408352325       -2.7425917171       -2.0750966294
 H         -4.1963717297       -6.2170865169       -0.1604831281
 H         -4.0508089116       -8.1696410988        1.3236432679
 H         -2.9172133713       -7.9890078365        3.5102986826
 H         -1.9321284293       -5.8318604210        4.2006450625
 H         -2.0927006721       -3.8704778658        2.7270500612
 H         -0.6927646471       -4.4217977175        0.2911372101
 H          1.2249852471       -2.8805901895        0.1642073042
 H         -3.4485617937       -1.1457936467        0.2844091832
 H         -3.2594272065        1.5861773758        0.1970803352
 H         -1.6916461543        4.1359499267       -2.3380180494
 H         -1.3419166722        6.0814253059       -3.7995858226
 H         -1.9634452896        8.3436682132       -3.0274741658
 H         -2.9234010286        8.6432676672       -0.7718304985
 H         -3.2554754375        6.7041796854        0.6998885045
 H         -5.1343884004        5.0969076963       -0.3648351623
 H         -7.0426580985        4.9921077045        1.1797232742
 H         -6.7916056948        3.9358551522        3.3981117548
 H         -4.6082624937        2.9881279871        4.0589661774
 H         -2.6920869159        3.1088928609        2.5257551233
 H         -0.0789185626        4.4445113104       -0.0128623188
 H          1.6073191228        2.6494494955       -0.0225716769
 H          2.4103762449        1.0316852864       -1.7342527482
 H          4.8584587301        0.8972514485       -1.8202110532
 H          6.7702732890       -0.4345499033        1.9792880880
 H          9.2220519450       -0.5609761221        1.8767141681
 H         12.3286232335       -0.7381210832       -1.5200609374
 H         10.9808799928       -0.6921635164       -3.6471736857
 H          6.5988402035       -0.4799026537       -2.3052363468
 H          4.8391267141       -1.5880577253        1.6586271582
 H          2.3974856066       -1.3973585886        1.7790461698
 H         -5.7596079298       -4.3571923814        0.9780593559
 H         -7.7230644777       -3.9934425604       -0.4535540289
