  120
       -189.80408215
 N         12.8479284088       -6.5087209794       -0.3588720891
 C         11.8709915899       -5.9071250000       -0.3224022658
 C         10.6723218550       -5.1652462099       -0.2768565212
 C          9.6010916861       -5.6089268971        0.5020678922
 C          8.4324649615       -4.8798606473        0.5392412038
 C          8.3021054534       -3.6936587361       -0.1868868993
 C          7.0567481281       -2.9224640412       -0.1373302176
 C          5.8126613294       -3.5767859259       -0.1368971835
 C          4.6552520987       -2.8505420746       -0.0953037103
 C          4.6812991553       -1.4461878631       -0.0402930210
 C          5.9235311445       -0.7674389361       -0.0311090643
 C          7.0878165109       -1.5397127706       -0.0868910236
 C          5.9404995393        0.6763021157        0.0377188905
 C          7.1233046520        1.4214539595        0.0625566045
 C          7.1266525617        2.8045036549        0.1205680649
 C          8.3907589192        3.5459421389        0.1365215654
 C          9.4917382100        3.0685072297        0.8521768818
 C         10.6815894203        3.7630692289        0.8702803977
 C         10.7972669688        4.9618367249        0.1629056989
 C         12.0130951906        5.6766283942        0.1774970972
 N         13.0037082227        6.2565321073        0.1908920863
 C          9.7046051433        5.4497753371       -0.5575433569
 C          8.5192462928        4.7474906677       -0.5646552344
 C          5.8979933476        3.4865290799        0.1599313068
 C          4.7233225010        2.7873145653        0.1437966502
 C          4.7148771248        1.3832815037        0.0804316856
 C          3.4641017081        0.6965301471        0.0593954076
 N          2.3173833521        1.3536695572        0.0892616535
 C          1.1405627062        0.7327607524        0.0652279520
 C         -0.0720795579        1.4149725691        0.0691172805
 C         -1.2854908195        0.7408528960        0.0355967319
 C         -2.5538211484        1.4763784626       -0.0448330900
 C         -3.5048316919        1.1122008476       -0.9998992299
 C         -4.7425030670        1.7104565863       -1.0272825305
 C         -5.0700846616        2.6978676046       -0.0967577453
 N         -6.3696889400        3.2156785497       -0.0761134224
 C         -6.5984847504        4.5747677728        0.1330985820
 C         -7.7430066804        5.0090854856        0.8037059400
 C         -7.9621585970        6.3578635304        1.0025821110
 C         -7.0468964763        7.2936329604        0.5479774608
 C         -5.9063042352        6.8676146788       -0.1134677484
 C         -5.6810480955        5.5218576585       -0.3251908266
 C         -7.4316108069        2.3182393113       -0.2459071735
 C         -8.5502285969        2.6623241846       -1.0034899357
 C         -9.5765392036        1.7530659105       -1.1758058584
 C         -9.5071045749        0.4957662357       -0.5979579952
 C         -8.4007860674        0.1526879430        0.1622708649
 C         -7.3685591106        1.0519454234        0.3373254049
 C         -4.0992029812        3.1199429643        0.8105599791
 C         -2.8570807431        2.5176212715        0.8291042318
 C         -1.2995303584       -0.6665092080        0.0336929281
 C         -2.5846611190       -1.3827034105        0.0933496776
 C         -2.9445204219       -2.3029151333       -0.8874874287
 C         -4.1979705227       -2.8797018119       -0.8843459484
 C         -5.1106195927       -2.5749111447        0.1241135108
 N         -6.4036978851       -3.1203753990        0.0885449144
 C         -7.1161392656       -3.0525008487       -1.1129514581
 C         -7.9719888558       -4.0833071794       -1.5000140441
 C         -8.6784631454       -3.9898890537       -2.6833898437
 C         -8.5402922049       -2.8779823611       -3.4985548735
 C         -7.6810976896       -1.8575076500       -3.1241206640
 C         -6.9717156730       -1.9396317681       -1.9427753356
 C         -6.9696666876       -3.6491812255        1.2469418553
 C         -8.3467494507       -3.5908995579        1.4711283360
 C         -8.8872370697       -4.1160018566        2.6284550865
 C         -8.0725715272       -4.7017583634        3.5836246547
 C         -6.7049520110       -4.7605679519        3.3686165121
 C         -6.1545988545       -4.2435254181        2.2129320803
 C         -4.7294920491       -1.7086624408        1.1475513129
 C         -3.4869738879       -1.1134382253        1.1218823393
 C         -0.1040833738       -1.3684951162        0.0095372709
 C          1.1248658531       -0.7139450097        0.0158217893
 N          2.2856844890       -1.3615673650       -0.0135275951
 C          3.4479760014       -0.7304986572        0.0025021020
 C          9.3814163507       -3.2597504596       -0.9605004806
 C         10.5529825293       -3.9832040116       -1.0116235533
 H          9.6987565008       -6.5214143047        1.0716763099
 H          7.6137230081       -5.2179290504        1.1570154589
 H          5.7759139201       -4.6541674423       -0.1987401093
 H          3.6910106697       -3.3355702119       -0.1058034107
 H          8.0519444043       -1.0567740623       -0.0634085099
 H          8.0741434807        0.9154730286        0.0079784822
 H          9.4027846525        2.1540059470        1.4198461013
 H         11.5269989538        3.3920883340        1.4312684344
 H          9.7992804547        6.3748168769       -1.1069636248
 H          7.6845309123        5.1197442098       -1.1399017771
 H          5.8864543879        4.5638493058        0.2309903024
 H          3.7713210121        3.2946826050        0.1819864235
 H         -0.0488489868        2.4940550096        0.0653797585
 H         -3.2623899128        0.3570782513       -1.7318388482
 H         -5.4751178984        1.4164543310       -1.7648671640
 H         -8.4510191002        4.2818245993        1.1731541964
 H         -8.8506886112        6.6798742877        1.5250927779
 H         -7.2209635947        8.3464114734        0.7081798027
 H         -5.1898392452        7.5896478336       -0.4761503175
 H         -4.7987752686        5.1931449851       -0.8546988356
 H         -8.6018991781        3.6393018984       -1.4614488501
 H        -10.4339810527        2.0268882948       -1.7723659254
 H        -10.3094277991       -0.2121571912       -0.7391142692
 H         -8.3438793082       -0.8170965704        0.6321109266
 H         -6.5054869567        0.7836026793        0.9289918013
 H         -4.3369811359        3.8997394738        1.5193232206
 H         -2.1257887281        2.8251835189        1.5623462356
 H         -2.2456259483       -2.5385039530       -1.6770406801
 H         -4.4862232926       -3.5651308229       -1.6680634965
 H         -8.0722971271       -4.9560468531       -0.8714648105
 H         -9.3366084405       -4.7951618164       -2.9742202598
 H         -9.0962671944       -2.8088510913       -4.4208505889
 H         -7.5695595521       -0.9857783201       -3.7517965599
 H         -6.3103686772       -1.1397302250       -1.6444273171
 H         -8.9903845673       -3.1304075899        0.7358724693
 H         -9.9538818518       -4.0597526386        2.7881641315
 H         -8.4996200302       -5.1096168981        4.4866915782
 H         -6.0612277789       -5.2209193369        4.1033401017
 H         -5.0894562060       -4.3023877216        2.0440082435
 H         -5.4236237310       -1.4926598786        1.9468478849
 H         -3.2084032643       -0.4210591890        1.9025830517
 H         -0.1069874222       -2.4479308313        0.0095886018
 H          9.2877915965       -2.3572200621       -1.5464428209
 H         11.3818184522       -3.6470876293       -1.6175815485
