  99
       -149.80775470
 C         -8.6344427970       -4.2340259493        2.7988204118
 C         -7.6210489127       -3.3549847919        2.1369209604
 C         -6.3702430557       -3.1404834406        2.7069261872
 C         -5.4308524871       -2.3421712362        2.0881653368
 C         -5.7209332642       -1.7325143664        0.8654687632
 N         -4.7714078611       -0.9288297220        0.2374015287
 C         -5.1696762565        0.1837373086       -0.5140645350
 C         -4.5099035844        0.4987502820       -1.7041371320
 C         -4.8786000000        1.6085551773       -2.4342671312
 C         -5.9159515139        2.4320599840       -2.0098226002
 C         -6.3078857952        3.6452919427       -2.7915837652
 C         -6.5797579659        2.1048001248       -0.8293601836
 C         -6.2173661416        1.0007394113       -0.0864240388
 C         -3.4224471132       -1.2376897483        0.2945088720
 C         -2.9816083512       -2.5781234655        0.2775327459
 C         -1.6487942969       -2.8863053818        0.1849485344
 C         -0.7042743523       -1.8478371444        0.1145821765
 C         -1.1527417493       -0.4998162536        0.1959853961
 C         -2.4767080870       -0.1922389127        0.2814678219
 C         -0.0019223130        0.4516872484        0.0089404172
 C          0.3368476920        1.4107799022        1.1290732939
 C          0.8219733036        1.1091532287        2.3688334421
 C          1.2018989738        2.1698341621        3.2180423371
 C          1.7534481817        1.8956265467        4.4719400591
 N          2.2389225871        1.6677989119        5.4944748982
 C          1.0732387602        3.5041201536        2.7828995031
 C          0.5875296640        3.7965674377        1.5331233017
 C          0.2210621046        2.7489603571        0.6792626805
 C         -0.2451545235        2.7442956635       -0.6697769378
 C         -0.6213188072        3.7853829818       -1.5272671816
 C         -1.0981950021        3.4843345966       -2.7782944910
 C         -1.2076444968        2.1476132396       -3.2113128915
 C         -1.7464423551        1.8648194503       -4.4688810146
 N         -2.2199509710        1.6295082629       -5.4954390012
 C         -0.8205819227        1.0934316416       -2.3573076729
 C         -0.3446914740        1.4035904661       -1.1160980143
 C          1.1492061140       -0.5006223427       -0.1704621011
 C          2.4726187039       -0.1928754280       -0.2657192143
 C          3.4189827893       -1.2377588148       -0.2718344161
 N          4.7685343068       -0.9294865504       -0.2342243523
 C          5.1807798315        0.1946454736        0.4915192045
 C          6.2316019882        0.9937801819        0.0378814032
 C          6.6139918247        2.1061649591        0.7575439523
 C          5.9673849970        2.4603479305        1.9399904576
 C          6.3946549568        3.6728135640        2.7042525090
 C          4.9245536365        1.6568609310        2.3884246558
 C          4.5358383292        0.5385536949        1.6816021020
 C          5.7090294983       -1.7488215959       -0.8567164762
 C          5.4060235217       -2.3749608365       -2.0684654473
 C          6.3348774753       -3.1893198926       -2.6804379244
 C          7.5887013467       -3.4049171909       -2.1148500152
 C          8.5813064746       -4.3085254572       -2.7751061683
 C          7.8845314816       -2.7753399900       -0.9092362928
 C          6.9647425772       -1.9603227139       -0.2834630561
 C          2.9792025609       -2.5781893230       -0.2330729881
 C          1.6472466440       -2.8864945011       -0.1304607032
 C          0.7020680032       -1.8480735209       -0.0713536908
 C         -6.9747236797       -1.9441950788        0.2864474455
 C         -7.9040320414       -2.7420258524        0.9184493554
 H         -9.6279522820       -3.7953060848        2.7318026157
 H         -8.3879139782       -4.3944306599        3.8452500901
 H         -8.6661997419       -5.2049717388        2.3032400476
 H         -6.1308853850       -3.5975521667        3.6560194908
 H         -4.4714305941       -2.1672682144        2.5524384886
 H         -3.7133574423       -0.1369706881       -2.0574751643
 H         -4.3555579706        1.8309559263       -3.3520792755
 H         -6.0560634898        4.5477976042       -2.2345309828
 H         -5.7887581440        3.6736609017       -3.7459584304
 H         -7.3815125671        3.6562715022       -2.9721182493
 H         -7.3868177656        2.7341463908       -0.4833296422
 H         -6.7291839666        0.7712155651        0.8367768700
 H         -3.7203785166       -3.3661225219        0.2815827979
 H         -1.3304321998       -3.9158330208        0.1250650920
 H         -2.8074321768        0.8340494599        0.3227806763
 H          0.9266579879        0.0871193762        2.7052853156
 H          1.3759439069        4.2967693792        3.4525582085
 H          0.5083208533        4.8216892533        1.2026833996
 H         -0.5554319220        4.8121100096       -1.1989003132
 H         -1.4076403587        4.2716677574       -3.4511183495
 H         -0.9126682706        0.0693935459       -2.6914336512
 H          2.8020438740        0.8331438689       -0.3219809663
 H          6.7304201810        0.7431054425       -0.8869230467
 H          7.4236033953        2.7209606916        0.3919188914
 H          5.7594610270        3.8256054082        3.5726835314
 H          7.4252343879        3.5646238010        3.0411007559
 H          6.3445759476        4.5584700571        2.0720990818
 H          4.4126687690        1.9009794211        3.3071545697
 H          3.7355457113       -0.0813469521        2.0540363771
 H          4.4446188063       -2.1998845799       -2.5285911977
 H          6.0871226051       -3.6600874747       -3.6206599148
 H          8.4792419267       -4.2721154156       -3.8572803631
 H          9.5979836095       -4.0343418276       -2.5042763997
 H          8.4141206275       -5.3386638956       -2.4576235590
 H          8.8491732209       -2.9328730936       -0.4492949721
 H          7.2034383117       -1.4916960916        0.6598599868
 H          3.7186199197       -3.3655673016       -0.2298920151
 H          1.3301743674       -3.9154057372       -0.0551474051
 H         -7.2028950338       -1.4893791810       -0.6661840241
 H         -8.8670148571       -2.9011415176        0.4555367980
