99
 energy: -149.942259199998 gnorm: 0.000094929506 xtb: 6.7.1 (edcfbbe)
C           -8.50318735434175       -4.18849962031961        2.98836368154805
C           -7.54559757889430       -3.30385303624058        2.24880344584181
C           -6.30475820432545       -2.99319437347102        2.79611554137038
C           -5.40568189186232       -2.19280052843005        2.12105641821687
C           -5.72267260361027       -1.68507562224427        0.86168095414895
N           -4.80888450525954       -0.87691005956257        0.16867925249350
C           -5.27510888116069        0.21700350106416       -0.57541611027406
C           -4.71019739973736        0.53107795319952       -1.81048998788864
C           -5.16575516998798        1.61646531788904       -2.53321286640141
C           -6.20433260007237        2.40971700418072       -2.06076453934048
C           -6.69326348458300        3.59454796184087       -2.83792398725950
C           -6.77291766538933        2.08317558068406       -0.83371992387653
C           -6.31672363127229        1.00964855139187       -0.09523561547760
C           -3.44929757767468       -1.18077054884874        0.17820448615094
C           -3.01359274988719       -2.50965239196607        0.21274184316752
C           -1.66902617990742       -2.82683749196714        0.18520195501054
C           -0.73402389903147       -1.80491357688670        0.10846097200362
C           -1.17182938819986       -0.47122249666583        0.08945035900437
C           -2.50424718911768       -0.14711289727223        0.13167540189555
C            0.00516677623157        0.47326858109690       -0.02759165638918
C            0.13653608732201        1.47408156270742        1.09115151016291
C            0.31031852546285        1.23133986612684        2.43316845021940
C            0.45977714629189        2.33073049060046        3.28709499013629
C            0.66409127384672        2.11543337969614        4.66710829229851
N            0.83994047797644        1.94206504433962        5.78845892629907
C            0.42576315795269        3.63946683180597        2.79311808891954
C            0.24466982232166        3.87324454261603        1.44333746485982
C            0.10482127540828        2.78733629819933        0.58997013703957
C           -0.07086611807808        2.72396505421106       -0.84964846832594
C           -0.19959701238841        3.73058157646777       -1.79679647408827
C           -0.38129634512144        3.37880538572691       -3.12067164680528
C           -0.42762577582045        2.03157364805674       -3.49587104074375
C           -0.63124629002993        1.69539523583403       -4.85162839256557
N           -0.80525621123961        1.42360511573509       -5.95356481293729
C           -0.29014845945890        1.01151736799541       -2.54683797030795
C           -0.11514187997323        1.37159185072061       -1.23160086944888
C            1.16915223730691       -0.49354406510218       -0.06241953990338
C            2.50596183801549       -0.19232759229449       -0.12830689513215
C            3.43633869037919       -1.23935779652427       -0.08929457513499
N            4.80034234878593       -0.95518502405868       -0.10285626813884
C            5.28253923186856        0.18673719161818        0.55335635319734
C            6.33400315142998        0.92645321643649        0.01283000895026
C            6.80241107740627        2.04960747475231        0.66389400489746
C            6.23675692638140        2.48016069701400        1.86039435869538
C            6.75551744312125        3.70735216853985        2.54730455113907
C            5.19000906786289        1.73888594551062        2.39374619008353
C            4.72173952667560        0.60455296472159        1.75896318093430
C            5.69880338931116       -1.82119527132465       -0.74367128732087
C            5.36592043352954       -2.41219914071235       -1.96186493443076
C            6.25314263370058       -3.26382148548683       -2.58861897602657
C            7.49662109794252       -3.54588225306480       -2.03250865119424
C            8.44310647127168       -4.48536877623827       -2.71669038877991
C            7.82405887728026       -2.94816634384103       -0.82150553283856
C            6.94140398283416       -2.10100777230140       -0.17951530465290
C            2.98275721728889       -2.56060680453022       -0.01768122593528
C            1.63387473737396       -2.85601894215595        0.03364808006282
C            0.71317343802214       -1.81842636688701        0.02592443773321
C           -6.96365793903203       -1.99103409328400        0.30792915529142
C           -7.85867671695067       -2.78594125446024        0.99820198939404
H           -9.49739977563679       -4.13700319215264        2.55151630864455
H           -8.56267299527182       -3.89958518273378        4.03627212596768
H           -8.16412418738867       -5.22427575427273        2.94737744611254
H           -6.04250263264265       -3.37822222315840        3.77147741857084
H           -4.45015585941255       -1.95348665366638        2.56525305475546
H           -3.91457373011537       -0.08483259459392       -2.20441250919872
H           -4.71125253285695        1.84090783077771       -3.48841429820153
H           -6.30980469282406        4.51608430050775       -2.39793247867926
H           -6.35895534501501        3.54537658538798       -3.87142801737930
H           -7.78033184925778        3.64461231388844       -2.82038356621197
H           -7.58203108532975        2.68598389947036       -0.44610637376619
H           -6.76565403889379        0.77593442750751        0.85936940495746
H           -3.74998574688741       -3.29914584029974        0.24570452457212
H           -1.35650551660595       -3.86010919091712        0.20057489261237
H           -2.82990152179193        0.88285375216984        0.12016360017004
H            0.34007466903811        0.22560093490454        2.82594127777744
H            0.54611335505365        4.46379996601630        3.48059964776470
H            0.22166374128568        4.88295036612288        1.06375749532983
H           -0.16725705291997        4.76988497897886       -1.50883676797592
H           -0.49192466933496        4.13962365335949       -3.87933988872267
H           -0.32907941855065       -0.02498044274919       -2.84827651138551
H            2.84624759409993        0.83048227495151       -0.19926696047882
H            6.77949358978776        0.61330235424675       -0.92037847351042
H            7.61827430725014        2.61074261158766        0.23056581215220
H            6.70358585051660        4.56791652623244        1.88104415486747
H            6.17897021978269        3.92415752810035        3.44313815250484
H            7.79877819830428        3.57027253652109        2.83093789168517
H            4.73718059138583        2.04371404291725        3.32721458373025
H            3.91773612266691        0.03249636559745        2.19923776617893
H            4.40816229529301       -2.19583177897591       -2.41318305536469
H            5.97873839035974       -3.71172208044078       -3.53334702674135
H            8.43001294525959       -4.32904611189499       -3.79365774204069
H            9.45829256010528       -4.34899449526274       -2.35198137805985
H            8.14821854345555       -5.51815281822793       -2.52583485884503
H            8.78295589312195       -3.15326655050806       -0.36684897304406
H            7.21014388626365       -1.65033899226597        0.76502619392952
H            3.70854921246442       -3.36002285309889        0.01319869884602
H            1.30694206065749       -3.88272902264801        0.10084325622169
H           -7.22096015211415       -1.60374827915404       -0.66741344957150
H           -8.81555934928838       -3.01336796659130        0.54993931840275
