99
 energy: -149.942044204178 gnorm: 0.000060512668 xtb: 6.7.1 (edcfbbe)
C           -8.61119055791452       -4.93345908960351       -0.31858301330884
C           -7.60139695658735       -3.82754843820750       -0.38248808086839
C           -6.37144405591636       -3.94115242921455        0.25486904226695
C           -5.45026907441032       -2.91256737071409        0.22089732879281
C           -5.73461087760550       -1.73498582023160       -0.46819968993968
N           -4.80252972273233       -0.68767829940941       -0.50686426890279
C           -5.24538456367850        0.64136660880998       -0.43992746477114
C           -4.63267335304199        1.63373028914680       -1.20470413621219
C           -5.06984684531188        2.94125533046732       -1.13330329221604
C           -6.13510250585502        3.30056582802519       -0.31468982518846
C           -6.59504469368202        4.72498642383026       -0.23412255106417
C           -6.74651991211261        2.30547221130636        0.43926574277272
C           -6.30977206288296        0.99605015206329        0.38684644378186
C           -3.44121585142628       -0.95938688453131       -0.63079167150924
C           -2.99570939957475       -2.03312493178234       -1.40859702115940
C           -1.64851938798969       -2.29898281520576       -1.56277097533239
C           -0.72110586231038       -1.47695898789071       -0.93935991727201
C           -1.16995659791590       -0.40632841430870       -0.15005073606359
C           -2.50576706672306       -0.14287104707893        0.01835909947896
C            0.00253470262030        0.35114692489414        0.43487076894744
C            0.00071117864725        0.38685694529841        1.94156016210419
C            0.00080932020590       -0.67292461965021        2.81740675286709
C           -0.00283075471365       -0.39279242154323        4.18919103408442
C           -0.00407413436878       -1.45837859386949        5.11515681781101
N           -0.00560143811629       -2.32375419599090        5.86979192434401
C           -0.00600274862975        0.92585730649167        4.65753588225701
C           -0.00606423368427        1.98419918437457        3.76890405773511
C           -0.00297538585096        1.71349289380212        2.40734644675949
C           -0.00326821526299        2.60180397629909        1.25912287566823
C           -0.00723396649925        3.98759080636055        1.17961845591322
C           -0.00713323585988        4.58220065559325       -0.06770790957924
C           -0.00289161191088        3.79804146652687       -1.22660996592489
C           -0.00273164969218        4.42811741631284       -2.48974072151208
N           -0.00260179994763        4.94421946759423       -3.51543301765842
C            0.00099847102593        2.40000671568068       -1.15353659298969
C            0.00059523458076        1.81789478255448        0.09190986044923
C            1.17604848736164       -0.40507534279859       -0.14936078201701
C            2.51158438235957       -0.14032466254384        0.01945963142517
C            3.44802557368988       -0.95624283614435       -0.62902277812806
N            4.80922665083797       -0.68372227220755       -0.50473495264662
C            5.74071118942140       -1.73145219190391       -0.46309815251244
C            6.97124825900847       -1.61513548283574       -1.10657634569589
C            7.88832717209277       -2.64643731911304       -1.04985267171883
C            7.60833320064455       -3.82268956921657       -0.36403202231891
C            8.59574785549086       -4.94975324229312       -0.32657980985504
C            6.37602459020294       -3.93434999883391        0.27042091664211
C            5.45490044927181       -2.90668356917200        0.23023934480810
C            5.25140631548587        0.64554778057880       -0.43937581297996
C            6.31563766327269        1.00209696648544        0.38678406563246
C            6.75085994717227        2.31210068365322        0.43803418994975
C            6.13808673423350        3.30589937409983       -0.31648592198861
C            6.59581513532914        4.73109319756541       -0.23695035215889
C            5.07325470039819        2.94464194400531       -1.13482307792655
C            4.63760795990014        1.63657644999592       -1.20507196825033
C            3.00389988010593       -2.03071144119396       -1.40657261130926
C            1.65703262799783       -2.29773426798436       -1.56147882432563
C            0.72863358998083       -1.47627420671848       -0.93883252855419
C           -6.96408892199403       -1.61622027213460       -1.11415875309431
C           -7.88061913270578       -2.64756883401132       -1.06349789477724
H           -9.17850109007875       -4.99330656089320       -1.24503244254846
H           -9.31515101431081       -4.74927529066943        0.49433923063476
H           -8.12820458249914       -5.89059625012455       -0.13639441110807
H           -6.13179674537137       -4.84606673901598        0.79533804292409
H           -4.50272668917251       -3.01580397026327        0.73005003870057
H           -3.81530301494790        1.37164004373314       -1.86111811805880
H           -4.58132095257909        3.69459495071669       -1.73579298058012
H           -6.01245688698535        5.26418697216175        0.51431963314293
H           -6.46129677638399        5.22880482814706       -1.18903651404406
H           -7.64306919057666        4.77896105401050        0.05132687026396
H           -7.57510533447960        2.55934499747805        1.08518517345422
H           -6.79340216344842        0.23773964241340        0.98557138235242
H           -3.72591176222679       -2.65457037431250       -1.90593832421790
H           -1.32671590328917       -3.12665216973288       -2.17663489906283
H           -2.84117897764599        0.67998216865918        0.63268976931951
H            0.00331005768628       -1.69478639776548        2.46765752446459
H           -0.00860240418711        1.10501247895685        5.72270284248537
H           -0.00870098186430        3.00027865495381        4.13179259927064
H           -0.01051515020025        4.59377262598171        2.07220041660624
H           -0.01035396237993        5.65825907687219       -0.16153227964357
H            0.00399120442475        1.80460970373764       -2.05482325109987
H            2.84607240861410        0.68299600812095        0.63367080720643
H            7.20371845734879       -0.71062971636034       -1.64996744264726
H            8.83758967617179       -2.53656791616071       -1.55488071414044
H            9.61161067197176       -4.58012716068659       -0.44545034673113
H            8.52456259596877       -5.49527893204776        0.61198159743917
H            8.39379490553348       -5.65020856864753       -1.13834965160409
H            6.13701548108021       -4.83685948105357        0.81518902317833
H            4.50727847346086       -3.00672738866135        0.73988425189203
H            6.80031509849199        0.24490884947717        0.98608768633477
H            7.57930055000472        2.56739729844334        1.08358132651994
H            6.00801768131197        5.27153011698791        0.50651215570069
H            7.64204624335269        4.78721684811288        0.05452471968016
H            6.46703255072302        5.23224421728387       -1.19397184162223
H            4.58380189598518        3.69694431387120       -1.73785646961099
H            3.82044619272786        1.37301033076855       -1.86115333093298
H            3.73499278708227       -2.65171239241754       -1.90316107575568
H            1.33619648341885       -3.12579800214177       -2.17531477696071
H           -7.19414597223595       -0.71059658496537       -1.65671001325415
H           -8.82852055494611       -2.53741719841060       -1.57108994070318
