99
 energy: -149.876154002192 gnorm: 0.000053295566 xtb: 6.7.1 (edcfbbe)
C           -8.44912318662071       -4.38483472751792        2.83760275243304
C           -7.48830701438886       -3.46717429392043        2.15041324716556
C           -6.23927997865934       -3.19060823273774        2.69810719978818
C           -5.34662406176297       -2.35683473628812        2.05572816980883
C           -5.68590163248749       -1.77428454051717        0.83343457761245
N           -4.78656300577672       -0.92306563309077        0.17967239842250
C           -5.27236452158257        0.21390959590700       -0.47802536842408
C           -4.71756345231202        0.62127430915033       -1.69265642214903
C           -5.19786834120538        1.74398205789478       -2.33564368779648
C           -6.24441965117094        2.48680393708547       -1.79884507820208
C           -6.76779961209236        3.70706356057873       -2.48788688196399
C           -6.79963981461520        2.06808427788729       -0.59086857641329
C           -6.32561171826836        0.95251917730776        0.06589073167314
C           -3.43358925727539       -1.20564092030714        0.16784844101051
C           -2.98468777296834       -2.54184992373897        0.15652295481236
C           -1.64699542347772       -2.84462122305342        0.09240475528649
C           -0.71232105455560       -1.80400071455027        0.04752355850390
C           -1.16406554747183       -0.46078081681990        0.08044698840945
C           -2.49419185828955       -0.15629961540337        0.13633635066228
C            0.00235028960755        0.48857689514902       -0.00649168499617
C            0.14619566628413        1.44978959099336        1.15461898061967
C            0.34191925186555        1.15226638811445        2.46941895370839
C            0.49971642262381        2.21694349352891        3.38978528257925
C            0.71897440115169        1.94579192997266        4.73735670486574
N            0.91295265545582        1.71570839686068        5.85513990687584
C            0.45127722256770        3.55239497355192        2.93070120788108
C            0.25422232274738        3.84104331968108        1.60590266989614
C            0.10033480243241        2.79075026748441        0.68599403752929
C           -0.09393081169195        2.78405551722017       -0.72115645291218
C           -0.24706340174988        3.82553154646141       -1.65114674402862
C           -0.44338014926544        3.52423213085203       -2.97323119020030
C           -0.49191488545824        2.18446492330749       -3.41954873743885
C           -0.70984496612118        1.90055818603686       -4.76470361572860
N           -0.90235571103019        1.65976753744330       -5.88047597564885
C           -0.33525644372225        1.12858481940604       -2.48891331549931
C           -0.14017970865286        1.43867882076735       -1.17692315600163
C            1.16666566383976       -0.46405972607591       -0.08472800202318
C            2.49752429417919       -0.16301888580637       -0.14157600553342
C            3.43465173373091       -1.21466737469341       -0.16308550079273
N            4.78819055404482       -0.93517142153855       -0.17445594688591
C            5.27513873506117        0.20651660841291        0.47425308156704
C            6.33037202721758        0.93862093179485       -0.07459181516843
C            6.80416935383860        2.06008012388962        0.57220789777678
C            6.24688861631048        2.49100714687997        1.77498687531748
C            6.77250857271495        3.71516146549256        2.45538860931918
C            5.19938112059728        1.75374586992736        2.31745902985695
C            4.71900199657963        0.62549638556733        1.68427234454686
C            5.68723548938720       -1.79477022092507       -0.81767066564663
C            5.34998582158522       -2.38627344344638       -2.03719713885352
C            6.24142048698120       -3.22800527997931       -2.66826108552975
C            7.48815000558277       -3.50624678207092       -2.11230609536584
C            8.43560152130162       -4.43749706234593       -2.79977338358358
C            7.81692819005716       -2.91006348235975       -0.89854108532125
C            6.93506245571622       -2.06562747706703       -0.25494251688177
C            2.98272745173543       -2.54974131342540       -0.14200799911266
C            1.64427525384816       -2.84899257793044       -0.07708798434575
C            0.71189703446093       -1.80596912817399       -0.04131069490403
C           -6.93761748168095       -2.04524326333052        0.27716133007829
C           -7.81948963607926       -2.87948662642146        0.93137573520878
H           -9.46529549637186       -4.00234937767694        2.76729753187281
H           -8.18796499581945       -4.51030140770294        3.88521807514869
H           -8.43000392855758       -5.36586110399897        2.36144229499735
H           -5.96402350439698       -3.62588795263960        3.64760284491524
H           -4.38858941383414       -2.13438591128696        2.50228104705825
H           -3.91883675636467        0.04541345992544       -2.13613983552945
H           -4.75404674228260        2.04059477960429       -3.27520869705920
H           -6.59300183958881        4.58951519176627       -1.87254363902059
H           -6.27950701833881        3.85260613944211       -3.44788261733953
H           -7.84187479361082        3.62311976316322       -2.64757844790538
H           -7.60997848123737        2.63478835479335       -0.15626782654864
H           -6.75516101783042        0.65204506043467        1.01002125998936
H           -3.71714734146138       -3.33510484243994        0.16075678787264
H           -1.32236354686870       -3.87295851109652        0.05499615409664
H           -2.82602793339261        0.87066945056218        0.16867520652702
H            0.38235323794364        0.13074123833693        2.82433011359157
H            0.57611751440411        4.34882572833218        3.65259274623259
H            0.22445946794717        4.86705440674290        1.26812497515395
H           -0.21716397555865        4.85471376651087       -1.32318281165946
H           -0.56744046767537        4.31368522774280       -3.70285599337924
H           -0.37585077325004        0.10368176461297       -2.83399813166457
H            2.83170991769239        0.86290044442068       -0.18171311835811
H            6.76123539789368        0.62867599789232       -1.01505694313071
H            7.61576045459568        2.62188399340501        0.13357781309770
H            6.23298816342801        3.91016161596721        3.37848724599087
H            7.83058560180099        3.59593531338235        2.68584796143867
H            6.67218060951270        4.58211738115753        1.80302601782723
H            4.75457005554588        2.05948408246910        3.25360944936916
H            3.91890088152175        0.05462980658965        2.13173981236399
H            4.39444203390336       -2.16339379889574       -2.48888197976397
H            5.97046503898180       -3.67121967610504       -3.61534153203549
H            8.42713773048593       -4.27119153345867       -3.87503061483614
H            9.44886644561179       -4.30923158419765       -2.42800374063427
H            8.13486940919668       -5.47065843412398       -2.62165743930479
H            8.77611761620949       -3.11516399512109       -0.44633818548109
H            7.19889398454198       -1.62015458660492        0.69270130022287
H            3.71337483495467       -3.34467557076695       -0.13898981603680
H            1.31727758054973       -3.87627083888626       -0.03196279500283
H           -7.20286186628704       -1.60686925358355       -0.67339343288600
H           -8.78203431196756       -3.08570704762866        0.48687500008094
