  75
       -122.34670492
 C         -9.6603943546       -0.8940109634       -0.2969799232
 C         -9.3877418456        0.2808564219        0.3870487690
 C         -8.0750043303        0.6990012360        0.5074066382
 C         -7.0632759347       -0.0750485097       -0.0668690705
 C         -5.6443541662        0.3006673059        0.0220223021
 C         -5.2472553870        1.6224763985        0.1975495730
 C         -3.8960683764        1.9590819827        0.2850843473
 C         -3.5290452032        3.3717625331        0.4607083012
 C         -2.2727853453        3.8675690169        0.1016062397
 C         -1.9996626358        5.2087921023        0.2979268470
 C         -2.9808460477        6.0234227168        0.8419698714
 C         -4.2020037609        5.4438469019        1.1515516847
 N         -4.4709716126        4.1670002830        0.9683350604
 C         -2.9403185665        0.9550237649        0.2120893502
 C         -3.3242208377       -0.3725331738        0.0256317518
 C         -2.3162409851       -1.4158348724       -0.0638890869
 N         -1.0463203410       -1.1057527791        0.0716453417
 C         -0.0620722980       -1.9996494820       -0.0402379269
 C          1.2753211475       -1.4691841819       -0.0529572145
 C          2.3360362017       -2.0710668830       -0.7530747613
 C          3.5911127908       -1.5090722837       -0.7553517105
 C          3.8344032026       -0.3239614419       -0.0626192211
 N          5.1355155399        0.2420513743       -0.0598579229
 C          6.1724661063       -0.3887851164        0.6102520560
 C          5.9766556882       -1.5543672418        1.3471404001
 C          7.0349517415       -2.1599671043        2.0007975130
 C          8.3049231791       -1.6130436540        1.9375630156
 C          8.5148389517       -0.4427096482        1.2262858987
 C          7.4610420980        0.1706347298        0.5713822742
 O          7.7283867469        1.3348600269       -0.0956433433
 C          6.6925991457        1.9508304154       -0.7424992474
 C          6.9743302693        3.1274720088       -1.4149043533
 C          5.9734705596        3.7897123956       -2.1073745284
 C          4.6935326821        3.2636055093       -2.1343942432
 C          4.4031402202        2.0884460958       -1.4644285306
 C          5.3913613934        1.4196932356       -0.7460512533
 C          2.7863417438        0.3088407414        0.6072527958
 C          1.5313102747       -0.2468328113        0.6011233988
 C         -0.3936194730       -3.4013014332       -0.1575440102
 C          0.4881273465       -4.4700618420       -0.0466417292
 C          0.0425465980       -5.7748882156       -0.2025492093
 C         -1.2956900976       -6.0273518360       -0.4562803926
 C         -2.2081617187       -4.9901618824       -0.5006354337
 C         -1.7887403918       -3.6661484995       -0.3244802994
 N         -2.6886766007       -2.6753806846       -0.2882623186
 C         -4.6753171400       -0.6917738680       -0.0787031681
 N         -7.3345393639       -1.2099969055       -0.7092138324
 C         -8.5876429397       -1.6010446071       -0.8195193326
 H        -10.6707820379       -1.2530430506       -0.4152660060
 H        -10.1883274461        0.8605682178        0.8246567284
 H         -7.8341504399        1.5974408119        1.0527724551
 H         -5.9672758567        2.4228023290        0.2473518872
 H         -1.5332032534        3.2189725725       -0.3402644221
 H         -1.0356266825        5.6156622144        0.0264327582
 H         -2.8069743214        7.0740916449        1.0136043592
 H         -5.0097204022        6.0322508150        1.5691774433
 H         -1.8878067151        1.1696464608        0.3087593245
 H          2.1541100317       -2.9533959717       -1.3458506520
 H          4.3961673632       -1.9734369184       -1.3070999875
 H          4.9867779396       -1.9779089848        1.4075843855
 H          6.8599785078       -3.0630742373        2.5644320869
 H          9.1303895664       -2.0866121506        2.4445003848
 H          9.4890615407        0.0155453828        1.1689350926
 H          7.9844075216        3.5033892775       -1.3865340880
 H          6.1993641120        4.7063595411       -2.6283635316
 H          3.9113326024        3.7655732868       -2.6823033729
 H          3.4072209516        1.6764289392       -1.4984267648
 H          2.9760890519        1.2328031455        1.1346834545
 H          0.7179722810        0.2340082422        1.1218166249
 H          1.5221512661       -4.2891286002        0.2023006311
 H          0.7436932530       -6.5915984989       -0.1174303757
 H         -1.6361975201       -7.0427350666       -0.5962165176
 H         -3.2576319971       -5.1728420099       -0.6680679496
 H         -4.9717139239       -1.7168483068       -0.2301132979
 H         -8.7381396568       -2.5297352462       -1.3558788473
