69
 energy: -112.078840129793 gnorm: 0.000085103001 xtb: 6.7.1 (edcfbbe)
N          -11.90709082265433        0.09690441168615       -0.02013261527180
C          -10.75674525267677        0.07907008206169       -0.01591786323509
C           -9.35087889242226        0.05773763353373       -0.01121398476241
C           -8.63647080303989        0.38396519892281       -1.17135025486026
C           -7.26147406139053        0.37296187809231       -1.15845836149885
C           -6.54865404279470        0.01795659216683       -0.00196611414588
C           -5.09440650314078       -0.00133113563853        0.00169835395861
C           -4.36457037991722        1.15199572305264       -0.42124259276452
C           -5.00888179646720        2.35093859369233       -0.75146371597310
C           -4.30916912879394        3.43344666776803       -1.26955974082314
C           -2.94783656282620        3.33073809353695       -1.48153216825780
C           -2.27325894486265        2.17839833713632       -1.09525189598448
C           -2.94020247075584        1.10509800641261       -0.49383625124932
C           -2.23620624164428       -0.03970440177241       -0.00032143175416
C           -0.78815766823358       -0.05794697697165       -0.00165170864147
C           -0.04826196677192        1.00742308295340        0.54262942199281
C            1.32466105811310        0.98940759541749        0.55157355390141
C            2.02441176944701       -0.08663854761647       -0.01205951411746
C            3.45765761003832       -0.11211999597080       -0.03013362254570
N            4.20510947217980       -1.07411053296682       -0.50806324767417
C            5.48937969295145       -0.66071074618434       -0.31401948865123
C            6.72122457637583       -1.29865168015174       -0.63591575839791
C            6.75565298489623       -2.55567954390330       -1.24820158122730
C            7.95745398114127       -3.15013736068703       -1.54640518418264
C            9.14364051256666       -2.48945194608386       -1.23304969193669
C            9.12241822674060       -1.25207984964128       -0.63159581458302
C            7.91620545840119       -0.60981732374854       -0.31053422783864
C            7.87321590577124        0.69701737159767        0.32476444395918
C            9.02974503735064        1.41728115039755        0.65778600271079
C            8.96536409317521        2.65371876996252        1.25894018001680
C            7.73578514355366        3.23726490347323        1.56152969610495
C            6.57799095640871        2.56868253862831        1.25297229696222
C            6.63056005317552        1.30926768498060        0.63894645437659
C            5.46598647597457        0.58459298810799        0.29762525369805
O            4.16984763182769        0.93526626311120        0.47958570984905
C            1.29812082146420       -1.15003303978206       -0.56792692296307
C           -0.07385659314287       -1.14029261063035       -0.54899038350447
C           -2.96985981641167       -1.16554159868807        0.49370844622767
C           -2.33030350230862       -2.25748501462002        1.09121743349637
C           -3.03517604405119       -3.39088244328573        1.47954235427852
C           -4.39971931791245       -3.45552761249556        1.27320867630190
C           -5.07121342681652       -2.35407220990313        0.75774782354727
C           -4.39526847756158       -1.17339988820709        0.42487024877405
C           -7.27870941220559       -0.31704372933574        1.14964936459889
C           -8.65360334857959       -0.28868748957245        1.15343603935191
H           -9.17585422405472        0.63871732783666       -2.07234761251046
H           -6.71617393723743        0.60236759173162       -2.06205874050969
H           -6.07298005238537        2.44204376089795       -0.59784467332863
H           -4.83732141432886        4.34127923899303       -1.52012743571542
H           -2.39948342801854        4.14474368881898       -1.93162639922538
H           -1.21111569239212        2.11102758062416       -1.27192064334776
H           -0.57566679533726        1.82746280928804        1.00761308379892
H            1.87827504681587        1.80157824415526        0.99914212588244
H            5.81533004747151       -3.03494829870432       -1.47445138510856
H            7.98646396802334       -4.12064695743124       -2.01892159138608
H           10.09135660288786       -2.95333010710310       -1.46494151037791
H           10.06403634470740       -0.77765866063995       -0.40702461203803
H           10.00207216276777        1.00486244364015        0.44270860597848
H            9.87836872209043        3.17815269099980        1.49987314615875
H            7.69761652115337        4.20746727318061        2.03391507134235
H            5.60989502818477        2.99407462792656        1.47375864324146
H            1.84495674555855       -1.96573653796005       -1.01416522020224
H           -0.62180766627286       -1.94918883225583       -1.00917541703219
H           -1.26578713300341       -2.22055415014885        1.26215697458270
H           -2.50764492620617       -4.22024996944382        1.92629175252104
H           -4.95191194528723       -4.34844716307230        1.52544944544245
H           -6.13795677600150       -2.41578445755360        0.60814401563824
H           -6.74625256452475       -0.56121616098919        2.05703222872612
H           -9.20594614813862       -0.52781507600470        2.05087640482518
