  69
       -112.02973932
 N        -11.8984594163        0.0955739882       -0.0620787417
 C        -10.7493516911        0.0828861600       -0.0494372729
 C         -9.3422751966        0.0677031017       -0.0345607579
 C         -8.6208224808        0.3929977588       -1.1893910043
 C         -7.2460873578        0.3814445795       -1.1677521334
 C         -6.5413614259        0.0278278459       -0.0065401259
 C         -5.0880521036        0.0024312832        0.0048716902
 C         -4.3519905540        1.1491147848       -0.4226614489
 C         -4.9894032170        2.3481545690       -0.7643425734
 C         -4.2820374415        3.4237684184       -1.2849280083
 C         -2.9204648812        3.3131251325       -1.4890794960
 C         -2.2531147461        2.1607773341       -1.0923301685
 C         -2.9281758049        1.0947364090       -0.4879569002
 C         -2.2334367535       -0.0512131936        0.0138967109
 C         -0.7863377617       -0.0750775769        0.0182884081
 C         -0.0472153658        0.9926829464        0.5579137866
 C          1.3252225344        0.9736194263        0.5684929678
 C          2.0230110121       -0.1053877439        0.0099459855
 C          3.4556454216       -0.1271889739       -0.0132809039
 N          4.2034466968       -1.0804885643       -0.5044444344
 C          5.4841576553       -0.6638175663       -0.3152059364
 C          6.7172003364       -1.2891212013       -0.6538608671
 C          6.7528952536       -2.5368704663       -1.2833649845
 C          7.9556098223       -3.1181570729       -1.6024502663
 C          9.1399310580       -2.4534341035       -1.2929984413
 C          9.1168140236       -1.2250560814       -0.6732793086
 C          7.9100735440       -0.5966912391       -0.3307126665
 C          7.8639989491        0.7008619171        0.3228204732
 C          9.0178532753        1.4216199910        0.6604647657
 C          8.9498950182        2.6495459377        1.2785946324
 C          7.7194475033        3.2236461096        1.5932522275
 C          6.5637947308        2.5536127797        1.2813335702
 C          6.6204179446        1.3026694762        0.6515806030
 C          5.4576131306        0.5769727057        0.3095829180
 O          4.1645037823        0.9181056652        0.5018413519
 C          1.2984071950       -1.1725867574       -0.5390042915
 C         -0.0733726102       -1.1622237989       -0.5203696731
 C         -2.9734674252       -1.1704424615        0.5108326224
 C         -2.3416242125       -2.2621223228        1.1161832439
 C         -3.0542948103       -3.3879622220        1.5101803076
 C         -4.4185142048       -3.4457205792        1.3017943452
 C         -5.0822448766       -2.3440165109        0.7783262609
 C         -4.3981771825       -1.1704283764        0.4386402508
 C         -7.2787270131       -0.3021913964        1.1411616739
 C         -8.6533894610       -0.2748023387        1.1351810932
 H         -9.1536277092        0.6443462931       -2.0949039977
 H         -6.6932962981        0.6073150265       -2.0678640441
 H         -6.0537916266        2.4444567591       -0.6157901812
 H         -4.8040415847        4.3327374797       -1.5427188238
 H         -2.3663168244        4.1224913209       -1.9396679123
 H         -1.1904363285        2.0869073993       -1.2637732332
 H         -0.5771954190        1.8146472714        1.0171112262
 H          1.8788425830        1.7876931431        1.0115347621
 H          5.8134197997       -3.0184661378       -1.5055087360
 H          7.9877363269       -4.0822284309       -2.0873625664
 H         10.0883266279       -2.9074279672       -1.5404867444
 H         10.0578077262       -0.7476857993       -0.4519169754
 H          9.9916429657        1.0170644964        0.4363309619
 H          9.8614188519        3.1752843221        1.5220589308
 H          7.6802378440        4.1879137252        2.0773399947
 H          5.5951001652        2.9713894805        1.5108744370
 H          1.8457687932       -1.9901207420       -0.9804865368
 H         -0.6242474137       -1.9724326373       -0.9752984546
 H         -1.2773949195       -2.2297237661        1.2902123344
 H         -2.5333237977       -4.2182611907        1.9621658024
 H         -4.9763251649       -4.3334635494        1.5585210998
 H         -6.1489710767       -2.3996121605        0.6260044498
 H         -6.7507099897       -0.5432744110        2.0522306731
 H         -9.2112401876       -0.5123988854        2.0292646801
