  69
       -112.09540910
 N        -11.8934034603        0.0281286812       -0.0668864667
 C        -10.7461808497        0.0233055565       -0.0531446097
 C         -9.3342076958        0.0188325505       -0.0356040262
 C         -8.6223618720       -0.1620846188       -1.2229342420
 C         -7.2430500245       -0.1624961135       -1.1996966834
 C         -6.5514568658        0.0118522783       -0.0018813873
 C         -5.0746847310        0.0062280391        0.0126790635
 C         -4.3695711951        1.0552998317       -0.5944526042
 C         -5.0359119407        2.1591403119       -1.1893795158
 C         -4.3416787406        3.1575072015       -1.7999056389
 C         -2.9348638318        3.1098767801       -1.8604577691
 C         -2.2571041046        2.0819748436       -1.2809562443
 C         -2.9401086689        1.0352849642       -0.6069575112
 C         -2.2518951322       -0.0146551081        0.0196484817
 C         -0.7758633610       -0.0330509237        0.0133519549
 C         -0.0512870833        0.9425703210        0.6949542119
 C          1.3281969571        0.9282027018        0.6866203214
 C          2.0125288444       -0.0676723975       -0.0101622507
 C          3.4555015007       -0.0975318956       -0.0376518573
 N          4.1883878385       -0.9985888977       -0.6265548695
 C          5.4779792011       -0.6186586668       -0.3925696534
 C          6.7034493864       -1.2224289566       -0.7912169994
 C          6.7261092156       -2.3999968398       -1.5445432991
 C          7.9224471155       -2.9629975183       -1.9140496562
 C          9.1141975412       -2.3503178731       -1.5319694198
 C          9.1039155564       -1.1914165018       -0.7912032667
 C          7.9032703827       -0.5836272448       -0.3929518118
 C          7.8700402413        0.6404164007        0.3897187243
 C          9.0322361521        1.3093338040        0.8004610166
 C          8.9772958283        2.4675398469        1.5408423083
 C          7.7529135181        3.0203790694        1.9112858438
 C          6.5901729657        2.3993218713        1.5308480427
 C          6.6337977556        1.2199274351        0.7767791961
 C          5.4623624484        0.5455600623        0.3586751144
 O          4.1705768053        0.8767701704        0.5854936434
 C          1.2914663198       -1.0484402964       -0.6933143705
 C         -0.0864593042       -1.0286432165       -0.6784575201
 C         -2.9589605733       -1.0516576283        0.6468419279
 C         -2.2939100777       -2.1074688454        1.3245424418
 C         -2.9892149036       -3.1242072863        1.9029340045
 C         -4.3963204341       -3.1509953030        1.8366381084
 C         -5.0733560391       -2.1438593045        1.2212055517
 C         -4.3884421797       -1.0506533473        0.6277367299
 C         -7.2706722918        0.1902945510        1.1787437062
 C         -8.6502839557        0.1973861729        1.1682148103
 H         -9.1576918579       -0.3005152237       -2.1508173024
 H         -6.6867736630       -0.3052649070       -2.1146758611
 H         -6.1144318835        2.1973969488       -1.1463931679
 H         -4.8637131313        3.9903380837       -2.2472132978
 H         -2.4000649141        3.8987469884       -2.3681720453
 H         -1.1791958377        2.0472221567       -1.3298947249
 H         -0.5817397042        1.7099313553        1.2403258924
 H          1.8854826731        1.6847023558        1.2180274494
 H          5.7816206633       -2.8430749007       -1.8196380258
 H          7.9448554908       -3.8726001439       -2.4953810592
 H         10.0577833185       -2.7903728222       -1.8201995371
 H         10.0499138791       -0.7521555838       -0.5176142134
 H         10.0015638282        0.9184158795        0.5361891912
 H          9.8942000178        2.9546259462        1.8384528417
 H          7.7234363668        3.9299547114        2.4921127381
 H          5.6258593364        2.8029279010        1.8014927104
 H          1.8354381398       -1.8108317219       -1.2274095133
 H         -0.6463178543       -1.7819472802       -1.2135616531
 H         -1.2157598174       -2.0890719937        1.3768384731
 H         -2.4680549140       -3.9201303036        2.4137444209
 H         -4.9324064719       -3.9753932349        2.2829480463
 H         -6.1520927167       -2.1663771093        1.1739163260
 H         -6.7362993824        0.3305199754        2.1070994745
 H         -9.2072799891        0.3386149593        2.0828608741
