69
 energy: -112.144720798949 gnorm: 0.000087231389 xtb: 6.7.1 (edcfbbe)
N          -11.89848683400540        0.08786768370656        0.05876335509799
C          -10.75033906715285        0.07111768289410        0.04888300908323
C           -9.33912338487761        0.05162762097800        0.03748033885002
C           -8.65412277789372       -0.25601388855020       -1.14034381370945
C           -7.27419631371216       -0.26845163036371       -1.14524588246247
C           -6.55649657652037        0.01780770710273        0.01513513159645
C           -5.07750463304807        0.00083657327193        0.00284834659695
C           -4.37551610281431        1.02769223487729       -0.64415508734891
C           -5.04476500751848        2.11199803522228       -1.27190503989656
C           -4.35305903979981        3.09213109412318       -1.91463389512139
C           -2.94558264371681        3.04558164258286       -1.97522035206956
C           -2.26522720292613        2.03413849509095       -1.36969152114375
C           -2.94580361892027        1.00420722675438       -0.66719257679474
C           -2.25488054191042       -0.03161822534667       -0.02084643786186
C           -0.77687135617028       -0.04730802609564       -0.03106264905373
C           -0.05578349183656        0.90965783925798        0.68067861863920
C            1.32396663034393        0.89782796501259        0.67657864314000
C            2.01326934404890       -0.07547633357829       -0.04827066845123
C            3.45716099338011       -0.10077210385630       -0.06767749798185
N            4.19933003213893       -0.96193879695601       -0.70483391759727
C            5.48794106095515       -0.59299590333722       -0.43593969357608
C            6.71935829554609       -1.16651462198298       -0.86245211694536
C            6.75496250145197       -2.29216188496564       -1.69191852662460
C            7.95739396867745       -2.82426372077175       -2.08816952219092
C            9.14313586822981       -2.23170362414352       -1.65779044331267
C            9.12070001795474       -1.12464146373152       -0.84134705163556
C            7.91353297585118       -0.55041540863912       -0.41238868297260
C            7.86907937039775        0.61842695033486        0.45101188919724
C            9.02570172000713        1.25905819656343        0.92041816955192
C            8.96020221148032        2.36537288333490        1.73609841854650
C            7.73026512370362        2.89212045750354        2.12705452057011
C            6.57265150586967        2.29643723704199        1.69237337482081
C            6.62700644818417        1.16955864145605        0.86150845252949
C            5.46209569586689        0.52078275018828        0.38659379490732
O            4.16466192004386        0.83476991044518        0.62131621357651
C            1.29513112233361       -1.03536915763811       -0.76447440225319
C           -0.08353107682756       -1.01947583632934       -0.75165438535245
C           -2.95837605249825       -1.05214681102634        0.63622300706943
C           -2.28995068041892       -2.09907929893885        1.32511249119408
C           -2.98335503313717       -3.09511210102202        1.94132795012356
C           -4.39241492669562       -3.10772823468322        1.90651702505698
C           -5.07197497098146       -2.11084578524755        1.27673342216661
C           -4.38840929881387       -1.04221248074964        0.63773466814743
C           -7.24830789093760        0.32027893726014        1.18704626341920
C           -8.62799972658124        0.34158652419338        1.20427789903217
H           -9.21062860704575       -0.48138178749575       -2.03845095607420
H           -6.74013822655590       -0.50630049492672       -2.05341073453646
H           -6.12325396871860        2.14858246599545       -1.22989201407552
H           -4.87703990350269        3.90995146125967       -2.38757859318396
H           -2.41245081871251        3.82152794502544       -2.50504156637502
H           -1.18720131962324        1.99955941918180       -1.41857939183853
H           -0.58750751017147        1.66225804271888        1.24464271754847
H            1.87864805689598        1.63926320103921        1.23216021353222
H            5.81518781139023       -2.72154041088130       -2.00417534308635
H            7.98746784564090       -3.69403407676297       -2.72747766877490
H           10.09121807255559       -2.64636507356943       -1.96808642098288
H           10.06177964310652       -0.69951482822067       -0.53190845647636
H            9.99828163528105        0.88646909039064        0.64305901813349
H            9.87286098847504        2.83171750298967        2.07707870302021
H            7.69111646524486        3.76146964440385        2.76630737364043
H            5.60419897304694        2.68023940447202        1.97828412842185
H            1.84130399386598       -1.78043151899920       -1.32108397604701
H           -0.63806594963810       -1.76049504567342       -1.30854561631004
H           -1.21067902013159       -2.09130164772728        1.35326043012724
H           -2.45936152799464       -3.88488992147956        2.45964807144895
H           -4.92719317481823       -3.91347805597000        2.38798896849647
H           -6.15158810522027       -2.12136903542657        1.25399309713969
H           -6.69401589216304        0.54468205349926        2.08648946137253
H           -9.16447984072454        0.58004943210346        2.11114251505953
