  89
       -134.97573972
 C         -6.3581347135       -2.1178552670       -1.6054085428
 C         -5.4751949089       -2.3088310896       -0.3581679380
 C         -6.3519885803       -2.6147250496        0.8708913843
 C         -4.5520841480       -3.4849721451       -0.6003226930
 C         -5.0875252398       -4.7373950984       -0.8661535729
 C         -4.2879594559       -5.8352905393       -1.1270497321
 C         -2.9097533450       -5.6888311571       -1.1411949567
 C         -2.3496054571       -4.4595554240       -0.8774830365
 C         -3.1561463879       -3.3509155088       -0.5872029225
 N         -2.5643100648       -2.1394230506       -0.3089936985
 C         -1.1480231632       -2.0056174638       -0.3363004749
 C         -0.5418381118       -1.2844658151       -1.3713572715
 C          0.7957289907       -1.0008361636       -1.3221320823
 C          1.6005606716       -1.4298973124       -0.2403776621
 C          2.9680371095       -1.0238357377       -0.1934046757
 C          3.9154124932       -1.5039507146        0.7285147558
 C          5.2056142539       -1.0101763280        0.6721944235
 C          6.2778348890       -1.4356271515        1.5517258361
 C          7.4889218210       -0.7277879233        1.5381707838
 C          8.5352123749       -1.0963976255        2.3548404394
 C          8.4091040076       -2.1827853834        3.2083414710
 C          7.2194725510       -2.8958729857        3.2297318653
 C          6.1672501718       -2.5324822092        2.4155807678
 N          5.5126966784       -0.0554439633       -0.2523100282
 C          4.5966582018        0.3757793270       -1.0998639844
 C          4.9631841916        1.4110316603       -2.0686811689
 C          6.2825293709        1.8448893786       -2.1678771153
 C          6.6250641976        2.8264534911       -3.0778042363
 C          5.6557789047        3.3860618363       -3.8949594695
 C          4.3403869294        2.9588766884       -3.8013968208
 C          3.9945889978        1.9761277550       -2.8947067753
 N          3.3711144302       -0.0859358939       -1.1000473544
 C          0.9817463770       -2.2127671253        0.7579048436
 C         -0.3636617689       -2.4835714531        0.7146586448
 C         -3.3011313356       -1.0059577333       -0.0437306200
 C         -2.6149249172        0.1698154727        0.2812822232
 C         -3.3308673918        1.3319932098        0.4539172024
 C         -4.7435487309        1.3359507774        0.3904380699
 C         -5.4133450940        0.1457007587        0.1329196780
 C         -4.7132841572       -1.0250128018       -0.0944557632
 C         -5.1537182379        2.6809437310        0.6574622267
 C         -6.3922399232        3.3096280345        0.7196046590
 C         -6.4347833125        4.6635427079        0.9810183663
 C         -5.2624853464        5.3952250247        1.1649515718
 C         -4.0187570822        4.7947911814        1.1082401714
 C         -3.9672553353        3.4295907614        0.8694963983
 N         -2.8734361446        2.5981121515        0.7446173427
 C         -1.5176400905        2.9448140094        0.8674683747
 C         -0.6059177726        2.5304169121       -0.1005331979
 C          0.7379341298        2.8203894144        0.0438975050
 C          1.1796390211        3.5452394877        1.1382087796
 C          0.2716997343        3.9769940743        2.0907837306
 C         -1.0719153431        3.6725419152        1.9658681955
 H         -7.0482365855       -1.2908109215       -1.4669113821
 H         -6.9366706332       -3.0133713046       -1.8122955817
 H         -5.7343381133       -1.9038749373       -2.4710421661
 H         -6.9251594300       -3.5251851966        0.7214061508
 H         -5.7238751886       -2.7437029649        1.7502611429
 H         -7.0457860013       -1.8011387403        1.0615995294
 H         -6.1588919834       -4.8666194227       -0.8752889805
 H         -4.7378553472       -6.7952623452       -1.3280148199
 H         -2.2731122864       -6.5323850377       -1.3603206551
 H         -1.2782892464       -4.3376316532       -0.8974550616
 H         -1.1507186628       -0.9412477838       -2.1962005424
 H          1.2687904947       -0.4373097262       -2.1109591030
 H          3.6359936154       -2.2439930613        1.4582387297
 H          7.5794137084        0.1183849809        0.8746228834
 H          9.4591288901       -0.5361478163        2.3297976912
 H          9.2291113584       -2.4737197837        3.8478298358
 H          7.1156542247       -3.7475381953        3.8873172978
 H          5.2603573548       -3.1167625980        2.4433368794
 H          7.0252365795        1.3975686425       -1.5252939747
 H          7.6505590638        3.1578993751       -3.1525135801
 H          5.9251862284        4.1541805221       -4.6050553355
 H          3.5852507471        3.3949102549       -4.4389581198
 H          2.9747441324        1.6310267110       -2.8116960289
 H          1.5564244107       -2.5768928078        1.5946939930
 H         -0.8341968825       -3.0488985634        1.5068469429
 H         -1.5456550820        0.1639782142        0.4004253254
 H         -6.4915287848        0.1503944924        0.1118521074
 H         -7.2990287463        2.7454854850        0.5615916233
 H         -7.3865265273        5.1700514714        1.0361530603
 H         -5.3275746298        6.4565326565        1.3529398092
 H         -3.1168451411        5.3739498821        1.2342902330
 H         -0.9553387078        1.9873607861       -0.9652619652
 H          1.4430341787        2.4790700017       -0.6986036394
 H          2.2293229896        3.7708849895        1.2475156193
 H          0.6121285559        4.5418740611        2.9459262943
 H         -1.7762387311        3.9788735945        2.7249487916
