80
 energy: -123.137434532688 gnorm: 0.000039570430 xtb: 6.7.1 (edcfbbe)
C            8.36769325333522        2.65533239470764       -1.67762053043754
C            7.11819379045351        2.47308162085200       -2.24696814683629
C            6.22827917101061        1.56496353803353       -1.70736378443640
C            6.57585918281300        0.82755769576059       -0.57526134509572
N            5.67391547758709       -0.08485148092650       -0.01884148674936
C            6.13664297226668       -1.29032689477708        0.52027128234042
C            7.20422405805998       -1.96640796700452       -0.07010239973590
C            7.66196677979139       -3.15241814329513        0.47012474665829
C            7.06174422515067       -3.68860749441542        1.59744707813132
C            5.99756667125824       -3.02387878677140        2.18484522703285
C            5.53793691027903       -1.83331390272692        1.65720336445078
C            4.30357296350946        0.20044358653223       -0.02449164884151
C            3.86330040081121        1.52224895023220        0.19654696539383
C            2.52993478444318        1.81356100994719        0.19914678341284
C            1.55569566831789        0.81915108943456       -0.00334644306257
C            1.98759860690625       -0.53628264052283       -0.22053027114713
C            3.37230955638890       -0.79230624965116       -0.23183664233893
C            1.09495804817105       -1.62334173488685       -0.44702506292385
C           -0.25811365481271       -1.38552930335814       -0.43161132761363
C           -1.54286079230069       -2.04442586668345       -0.60094729651751
C           -1.87331339252492       -3.35875249266616       -0.88036530799705
C           -3.21194057520711       -3.70509455642384       -0.95575913297581
C           -4.20050325039634       -2.77444216000524       -0.68539931586165
C           -3.90299719696750       -1.44510359068781       -0.37977492069252
N           -4.93606409400857       -0.57042934942592        0.01046648730970
C           -6.12629759507561       -0.61223824350863       -0.72916337314354
C           -6.05547637717702       -0.61555363227861       -2.12199482857349
C           -7.21015748593172       -0.66697577760600       -2.87784834851785
C           -8.44938614574619       -0.71199323552975       -2.26039140163155
C           -8.52425839796623       -0.71780713592969       -0.87713985751649
C           -7.37459394329920       -0.67456536351216       -0.11214531527453
C           -4.85386754738651        0.08574732667431        1.24025770363749
C           -3.95123498838472       -0.33203631324539        2.21811791227597
C           -3.83320154220069        0.36397623659092        3.40570616794145
C           -4.61722770434892        1.47701043436676        3.65203742215651
C           -5.52903998532641        1.88762591953423        2.69353730794298
C           -5.64754635031471        1.20638754649006        1.49986191242216
C           -2.56460845258555       -1.05995785152086       -0.41939963172390
N           -1.95613145800059        0.17559521923858       -0.21868250788022
C           -2.11188278980776        1.55025966249501       -0.12116978864866
C           -3.23696079762721        2.34196512614539       -0.25366119557396
C           -3.09499834217063        3.71146459456699       -0.11886784197718
C           -1.85336577219334        4.28869785283274        0.11831422109237
C           -0.71057827661704        3.51456478597228        0.18812185170141
C           -0.81542202876098        2.13723184777152        0.05429414256386
C            0.16039067037241        1.06804344676356       -0.00983491421038
C           -0.61359021030928       -0.05490956737328       -0.19298337193078
C            7.83369998895061        1.01885772866324       -0.00301391231873
C            8.71980409576216        1.92227849772585       -0.55592728107784
H            9.06195769706906        3.36305788609725       -2.10456698648055
H            6.83638039843971        3.03613027146488       -3.12471230883643
H            5.25888655477493        1.41688240372579       -2.16059019088413
H            7.66809634586710       -1.55637049662105       -0.95534725116277
H            8.48853549118425       -3.66606545060627        0.00128686240727
H            7.42016976295014       -4.61730646858798        2.01489708406510
H            5.52608194463400       -3.43138180747761        3.06719823769844
H            4.71359204661118       -1.31325570642555        2.12279337058845
H            4.59521583129645        2.29682236094133        0.37212665489753
H            2.20263947784666        2.82635192515089        0.37516587522553
H            3.70809533955672       -1.80518680855237       -0.40486388113848
H            1.51020593149684       -2.60317825768384       -0.62937406341223
H           -1.09815360036405       -4.09391494174859       -1.03048102339411
H           -3.49363959503765       -4.72126292456585       -1.18606352037833
H           -5.23706221390536       -3.07838374380084       -0.68307404217988
H           -5.08791503737694       -0.57886845717763       -2.60182493560947
H           -7.14202414607160       -0.66565535288405       -3.95575012407452
H           -9.35083209913142       -0.74756160452193       -2.85304138368266
H           -9.48606455804310       -0.76798882924722       -0.38802164870800
H           -7.43624306315528       -0.70017802238168        0.96595631344168
H           -3.34441235731728       -1.20993968448452        2.05272190383655
H           -3.12382941302450        0.02611166117519        4.14702169584681
H           -4.52116306679756        2.01816655540886        4.58079997402965
H           -6.14854877365657        2.75428605698980        2.87194396580287
H           -6.34986394700818        1.55047129927412        0.75447107106253
H           -4.19759431721745        1.91197685651905       -0.47900823307501
H           -3.96621260798545        4.34243925010195       -0.21149457900557
H           -1.77853425217736        5.36087077556791        0.22393303135026
H            0.25250479051971        3.98001824498634        0.33133328612689
H            8.10681996966126        0.45692954508625        0.87823716782160
H            9.68981133817636        2.06168198624572       -0.10151899746413
