80
 energy: -123.065075656798 gnorm: 0.000062708538 xtb: 6.7.1 (edcfbbe)
C            8.42902216717356        2.67641259853819        1.58544754258541
C            8.74389808670566        1.93378284803524        0.45902614564931
C            7.83672721519917        1.03001469455122       -0.05876966089742
C            6.59490029977466        0.85510942756981        0.55272678873675
N            5.67399570768107       -0.06349393479469        0.03713592988491
C            6.12668814643585       -1.28009332746373       -0.47911359114320
C            7.19889700257512       -1.94636476689148        0.11651923270561
C            7.64109202970741       -3.14879905993804       -0.39820566157968
C            7.02237326438143       -3.70879947609498       -1.50499720678405
C            5.95598605562398       -3.05259545982150       -2.09842144215796
C            5.51021992394904       -1.84560284460919       -1.59700949448692
C            4.31567032891383        0.24212322930314        0.01995352184094
C            3.87737290542890        1.54562915577563       -0.16853010866940
C            2.51392934034333        1.81358634474484       -0.18085279857286
C            1.55884232187941        0.81492014526446        0.00043096037405
C            1.99310674107753       -0.55061472590674        0.20954164467793
C            3.37348992049533       -0.78768251153736        0.21179385342489
C            1.11344246800971       -1.64855988510958        0.41617403906577
C           -0.28017363015100       -1.41743376714226        0.39520330627790
C           -1.54048147411860       -2.07476355585140        0.56081889171910
C           -1.89233926774778       -3.39188741567200        0.84091678107681
C           -3.22806453738659       -3.72518507850507        0.92233366687865
C           -4.22464625308932       -2.78717503477156        0.66646251558834
C           -3.91897853001651       -1.46250802591951        0.36074953629987
N           -4.95124429305992       -0.58064153368729       -0.02274274974445
C           -4.86768309268748        0.08103349074782       -1.24574972524710
C           -3.98663068722837       -0.35766024991631       -2.23597683731648
C           -3.86434628562191        0.33869511914806       -3.42191512631545
C           -4.62211853339242        1.47362058930603       -3.65537278412160
C           -5.51179097490104        1.90566737564957       -2.68550637500607
C           -5.63496064153108        1.22393941544277       -1.49256042330722
C           -6.12529079916839       -0.59340660230290        0.73747609958299
C           -7.38675618907143       -0.60835336173482        0.14267100723174
C           -8.52290333353663       -0.62543849242716        0.92818291367288
C           -8.42269931830444       -0.63814895369078        2.30996907826829
C           -7.17142690769721       -0.63947174147565        2.90521758208621
C           -6.02959103525858       -0.61641454274193        2.12948065177224
C           -2.57901511250586       -1.07911949643228        0.38933283207737
N           -1.96033168100058        0.13991223404579        0.19810929747709
C           -2.11640630716706        1.52753585294481        0.12229945001890
C           -3.23399313949110        2.30863228610012        0.27860569451015
C           -3.09774014634694        3.69208796403897        0.16309564258651
C           -1.86046409857071        4.26902993733779       -0.07455504067008
C           -0.71403541508984        3.49685016769977       -0.16327810172157
C           -0.81178879010904        2.11241572421604       -0.04722386045527
C            0.15584252542814        1.05510480739264        0.00217258625467
C           -0.62323397597870       -0.09645575735799        0.17397869663114
C            6.28311091933321        1.60356190533016        1.68818787028970
C            7.19587885604475        2.50691933344873        2.19529464665638
H            9.13985120031063        3.38311245122642        1.98565543266543
H            9.70019725289333        2.06452424638419       -0.02535476879527
H            8.07805868514206        0.46023935786564       -0.94417869945626
H            7.67190238938264       -1.51895637928552        0.98852857052404
H            8.46885694224618       -3.65718349386436        0.07356097069501
H            7.36990331497621       -4.65021092147408       -1.90224291092410
H            5.47248339904691       -3.47945583006822       -2.96449063543313
H            4.68901389360302       -1.32670552987067       -2.06850274243945
H            4.58939693988878        2.34148304162689       -0.32491770037170
H            2.18221615892274        2.82489483985311       -0.35487303171836
H            3.72996111080926       -1.78948996969000        0.40289976062810
H            1.52890606168621       -2.63060506421459        0.57582976634344
H           -1.12356894355750       -4.13505993768952        0.98666654715738
H           -3.51674531090380       -4.74166585462565        1.14494108906260
H           -5.26089083443824       -3.09056969978469        0.66795777239270
H           -3.40290278824951       -1.25196416208417       -2.07710415234075
H           -3.17387872086727       -0.01515037943313       -4.17338697762664
H           -4.52258569384454        2.01500046288696       -4.58364948872933
H           -6.10921198269826        2.78954637331302       -2.85420463813795
H           -6.31818438820029        1.58519257611837       -0.73762035215658
H           -7.46857642598686       -0.62259997823419       -0.93429067352021
H           -9.49455428518630       -0.64042219608046        0.45651015887790
H           -9.31398406934969       -0.65288425598183        2.91866129520884
H           -7.08415118261002       -0.65299937316632        3.98158716756233
H           -5.05274540883575       -0.61537595521279        2.59097269312417
H           -4.19320431703418        1.87784280857783        0.50919140021208
H           -3.97157337848234        4.31652118280063        0.26934916465985
H           -1.78482993531823        5.34273012035782       -0.16692126532027
H            0.24605641720953        3.96770061002647       -0.30738991313426
H            5.32618583789481        1.46300308664219        2.16839781286061
H            6.94593228436616        3.07746856467558        3.07737240724810
