  80
       -123.13738706
 C          8.3819919480        2.6533271974       -1.6646604017
 C          7.1330623239        2.4778412668       -2.2374251434
 C          6.2379273631        1.5720806251       -1.7023016967
 C          6.5798422381        0.8301312067       -0.5714533393
 N          5.6738060612       -0.0809907316       -0.0196584477
 C          6.1328586830       -1.2892655745        0.5169058481
 C          7.1960400658       -1.9689177835       -0.0772808347
 C          7.6494221880       -3.1581746541        0.4593956431
 C          7.0491149437       -3.6938931712        1.5869161252
 C          5.9896655984       -3.0252909937        2.1783780352
 C          5.5344005344       -1.8314715257        1.6542291890
 C          4.3039417956        0.2059411676       -0.0271867964
 C          3.8634377110        1.5277727221        0.1928158508
 C          2.5298961064        1.8188375193        0.1950503407
 C          1.5556072593        0.8242562757       -0.0065085872
 C          1.9879464778       -0.5311218677       -0.2229624671
 C          3.3725859800       -0.7867988026       -0.2345977269
 C          1.0957632496       -1.6187854766       -0.4481416926
 C         -0.2573556463       -1.3818366427       -0.4306285435
 C         -1.5415861684       -2.0416901739       -0.5993034818
 C         -1.8699269577       -3.3564319222       -0.8792261168
 C         -3.2079583850       -3.7045758788       -0.9553220267
 C         -4.1976075535       -2.7750265866       -0.6851311597
 C         -3.9021743957       -1.4453683625       -0.3787692001
 N         -4.9372116054       -0.5728815142        0.0113385552
 C         -6.1275440328       -0.6162832400       -0.7277836413
 C         -6.0576189415       -0.6258261040       -2.1207030895
 C         -7.2127978528       -0.6783180416       -2.8757305314
 C         -8.4518832525       -0.7176175265       -2.2576087780
 C         -8.5259710728       -0.7175887600       -0.8743276977
 C         -7.3758169221       -0.6739398630       -0.1100932179
 C         -4.8551080881        0.0833990675        1.2412188312
 C         -3.9534758404       -0.3356958446        2.2194061967
 C         -3.8343893957        0.3604555307        3.4068510950
 C         -4.6163812866        1.4750296899        3.6525321587
 C         -5.5275820807        1.8867419730        2.6938536933
 C         -5.6473170689        1.2051772803        1.5005183306
 C         -2.5641943961       -1.0582078942       -0.4172575362
 N         -1.9564729651        0.1779122469       -0.2163348252
 C         -2.1128619585        1.5527420242       -0.1204593949
 C         -3.2386038964        2.3437462930       -0.2512014281
 C         -3.0970164870        3.7136421130       -0.1196308332
 C         -1.8549418389        4.2922501469        0.1120947813
 C         -0.7116973663        3.5187059261        0.1810601574
 C         -0.8163786846        2.1408972298        0.0516362564
 C          0.1600352704        1.0722628445       -0.0118045628
 C         -0.6135944391       -0.0514768752       -0.1919401087
 C          7.8372573800        1.0145571797        0.0042046426
 C          8.7284131319        1.9157774523       -0.5440895872
 H          9.0803680310        3.3591781215       -2.0880677951
 H          6.8557382401        3.0442472778       -3.1144564081
 H          5.2690840019        1.4291346300       -2.1583746105
 H          7.6593033432       -1.5591772536       -0.9630514362
 H          8.4722499163       -3.6750096817       -0.0125097162
 H          7.4041226334       -4.6251788234        2.0015222013
 H          5.5185842523       -3.4321398959        3.0612792100
 H          4.7129520225       -1.3089528136        2.1221492573
 H          4.5950573904        2.3025974180        0.3685900941
 H          2.2025955061        2.8316406703        0.3713084358
 H          3.7084735411       -1.7995289900       -0.4086717576
 H          1.5114151908       -2.5983239286       -0.6311788054
 H         -1.0933447935       -4.0901609385       -1.0289357366
 H         -3.4884044431       -4.7210024683       -1.1859279316
 H         -5.2337929775       -3.0802363687       -0.6835362079
 H         -5.0903006409       -0.5926321863       -2.6014321438
 H         -7.1451262213       -0.6812706839       -3.9537229449
 H         -9.3537277730       -0.7536358448       -2.8496792007
 H         -9.4876438866       -0.7640170834       -0.3844350176
 H         -7.4372288041       -0.6952472032        0.9680838805
 H         -3.3478626549       -1.2145189362        2.0542343469
 H         -3.1253053922        0.0217432082        4.1482051068
 H         -4.5196046592        2.0164444707        4.5810316456
 H         -6.1459587892        2.7543206941        2.8721080361
 H         -6.3490109557        1.5501240181        0.7549573460
 H         -4.1997764681        1.9130578657       -0.4728271508
 H         -3.9690259613        4.3437695798       -0.2106406973
 H         -1.7801977172        5.3648425907        0.2144572664
 H          0.2516923336        3.9849757504        0.3199492607
 H          8.1058436010        0.4491147681        0.8846038866
 H          9.6978370714        2.0500414735       -0.0869157343
