80
 energy: -123.137434387805 gnorm: 0.000058573614 xtb: 6.7.1 (edcfbbe)
C            7.07147412641072       -3.89605986041347       -0.68364657526770
C            5.99878872223509       -3.40339029189142       -1.40888421151229
C            5.52403193434260       -2.12730230725453       -1.17808448870995
C            6.11589957363460       -1.32200528528130       -0.20486242694276
N            5.63724662720954       -0.02910635166954        0.03326765775225
C            6.52504405295629        1.00078225092736        0.35964880597881
C            6.16291438199496        1.97931940574519        1.28570289110934
C            7.03909873825529        3.00031219630884        1.59823816045752
C            8.28890156355025        3.05988392858219        1.00405387620970
C            8.65503131614528        2.08866384457860        0.08629928934134
C            7.78281499792720        1.06893980910596       -0.23999867651083
C            4.26319921549611        0.23170559968860       -0.02798779653370
C            3.80671962279528        1.45446971563701       -0.56291272856898
C            2.46972748334134        1.71932063417802       -0.63436180360789
C            1.50799715671486        0.79225203918488       -0.19311570483583
C            1.95679789801156       -0.46348764519495        0.34786180699530
C            3.34457656727974       -0.69232619956974        0.41684342187458
C            1.07795606663287       -1.47180761667339        0.83838769405709
C           -0.27790948931738       -1.26014959796346        0.77228015193559
C           -1.55387470677618       -1.87018252576358        1.10840520226347
C           -1.86699737367152       -3.07759876130869        1.70740652295341
C           -3.20088978326052       -3.40754561481715        1.87878996226349
C           -4.20203404773724       -2.58193092615198        1.39660777532298
C           -3.92217747499224       -1.36692168196705        0.76858729061541
N           -4.96912388203403       -0.62511347426484        0.18659298245201
C           -4.90929811316785       -0.29867734894600       -1.16957522667707
C           -4.01304126630118       -0.94123686236601       -2.02362324616414
C           -3.91787802208640       -0.56629021241644       -3.34992095629476
C           -4.71850697449964        0.44156085260196       -3.85734835143657
C           -5.62340174500103        1.07286056522398       -3.01987749076786
C           -5.71929810136024        0.71362690988484       -1.69143003232907
C           -6.14894047248933       -0.48866716542054        0.93145059470005
C           -6.05915799871777       -0.14314165965326        2.27963849444239
C           -7.20278494374532       -0.01213025482481        3.04264026576879
C           -8.44974197102669       -0.21888932535259        2.47580712566725
C           -8.54336549858076       -0.57073463282055        1.13921803242550
C           -7.40478409264830       -0.71198420418206        0.36947017846326
C           -2.58813997922729       -0.97155351395356        0.69741907001961
N           -1.99538344799656        0.18183141914998        0.19192485625944
C           -2.16793188599798        1.48826295717812       -0.24062772508444
C           -3.30219773662292        2.27550895169419       -0.30239809505845
C           -3.17713331558089        3.57067861105470       -0.77226392898843
C           -1.94312387150901        4.08527681273084       -1.15105652842938
C           -0.79125162887649        3.33065518947442       -1.03337955653179
C           -0.87913601124504        2.02806363977215       -0.56275792211580
C            0.10968553481858        1.01846669509055       -0.24275256188630
C           -0.65024167341598       -0.03352557505281        0.21495127754957
C            7.19204130353079       -1.82503138444752        0.52609389214201
C            7.66482535373584       -3.09972130196514        0.28197015970970
H            7.44169615702034       -4.89288974328897       -0.86932236271522
H            5.53238748670594       -4.01487750646830       -2.16747415370142
H            4.69299947714777       -1.74322970420506       -1.75136822444983
H            5.19325060325472        1.92928946173105        1.75933299583019
H            6.74635453822313        3.75010484953647        2.31865321386141
H            8.97257030534954        3.85691504338529        1.25407167822758
H            9.62525949964217        2.13020406947489       -0.38674226634798
H            8.06682989365024        0.31924671842704       -0.96405467368367
H            4.52926493383136        2.17222641312682       -0.92246484944490
H            2.12975207749432        2.65436906242066       -1.05142372243965
H            3.69325638951979       -1.62831142225631        0.83035034374693
H            1.50550179147678       -2.37185659758152        1.25416215313927
H           -1.08221421750883       -3.74494103556979        2.02778733152145
H           -3.46909358606730       -4.33774057739308        2.35605978960579
H           -5.23509696279766       -2.88622400573904        1.48049088172435
H           -3.39332115456094       -1.74339251275921       -1.65106157498918
H           -3.21341637439687       -1.07395999961402       -3.99250856227177
H           -4.64053294931261        0.73153437860118       -4.89393606343130
H           -6.25540699051516        1.86118140878318       -3.40178100955338
H           -6.41660358216512        1.22859898841825       -1.04658331561314
H           -5.08562254192233        0.01919573881180        2.71967843725162
H           -7.11994249741945        0.25872110912460        4.08489473843889
H           -9.34258362017051       -0.11192214832394        3.07288706689439
H           -9.51115527173410       -0.74838198573514        0.69350798709974
H           -7.48090334892011       -1.00676666647012       -0.66689805460026
H           -4.25716760236597        1.90382797126341        0.02663188585515
H           -4.05580009830358        4.19503678792032       -0.83423870966269
H           -1.88151861497966        5.09878472287378       -1.51890577252450
H            0.16575909560895        3.75682931266040       -1.29257824605665
H            7.65059130842126       -1.21063877843559        1.28715269166493
H            8.49787712666257       -3.47686479893399        0.85699296214755
