38
 energy: -61.699847922848 gnorm: 0.000098350476 xtb: 6.7.1 (edcfbbe)
C            2.01388767063800        2.21163627755374        1.34748856568952
C            0.87739551115279        1.42981402428713        1.22955748794730
C            0.97688162938632        0.19246901908672        0.58545248423393
C           -0.16929093651438       -0.70898026710462        0.42759988833732
C            0.02698522950898       -2.08575986536724        0.51207779823076
C           -1.02521334998804       -2.98670274742643        0.41668072292500
C           -2.32121386289255       -2.54978057391221        0.21272466816750
C           -2.54933642506209       -1.18599663692412        0.08778559267463
C           -1.47487992506478       -0.26823845109540        0.19310542096068
N           -1.96066693590010        1.00017798342142       -0.00253449806666
C           -3.31198462873874        0.94076816307233       -0.24189060802845
C           -4.20919114195530        1.96633141652673       -0.49849821435012
C           -5.53468664230710        1.62530542395460       -0.69215642046379
C           -5.95844520504719        0.29875346339202       -0.63203697107459
C           -5.06731057072214       -0.72553362038424       -0.37754013588488
C           -3.72924362892546       -0.40831053353260       -0.17863824279478
N            2.13833487060761       -0.25069197533555        0.11320467530145
C            3.22058301070316        0.49499210633452        0.23260705972335
N            4.39819415405609       -0.05608407268342       -0.27887794061984
C            5.53521688342093        0.59999311980295       -0.63676082817388
C            6.41663367682933       -0.34513402139037       -1.08967913979903
C            5.72012269912192       -1.56267050763198       -0.96421988784622
N            4.51493341318495       -1.37181501616040       -0.48336874139357
C            3.21621690458421        1.75434117504388        0.83598717151245
H            1.96863114048998        3.16830271348060        1.84758778476645
H           -0.05390784147657        1.74864377186370        1.67019358681239
H            1.03441299848969       -2.44053533370843        0.66525172094637
H           -0.82235392248259       -4.04374505569784        0.50335922429538
H           -3.13947162704788       -3.25013477581881        0.14064646762904
H           -1.40008101646550        1.83157296890939       -0.08174196539983
H           -3.88338676799477        2.99506614223280       -0.54670075321243
H           -6.25772997567465        2.40204981772201       -0.89444631696440
H           -7.00312754006328        0.07283666936507       -0.78848416176438
H           -5.40076290096952       -1.75141458586705       -0.33290003265667
H            5.62984552735687        1.66445045622171       -0.57248107279729
H            7.41080055073721       -0.19353619620459       -1.45727455363638
H            6.05756449859579       -2.55205932309649       -1.20341740570498
H            4.11564647643433        2.33961984705778        0.93233857046803
