  54
        -77.90733048
 N         -1.1975633651        0.8237654142       -2.7370568610
 C         -0.0987221596        0.7355798607       -2.3691852312
 C          1.2007044121        0.5967403341       -1.9162308068
 C          1.9107931740       -0.6176024203       -2.1468888444
 C          3.1558263483       -0.7957092681       -1.6229961326
 C          3.7503496054        0.1826781469       -0.7962239842
 C          5.1065471338       -0.0226862809       -0.2020442254
 C          5.0464785615       -0.0025934676        1.3287696217
 C          4.0294241934       -1.0372786085        1.8178706862
 C          2.6409075032       -0.7377992593        1.3528326824
 C          1.8603240972       -1.7085698075        0.6792066036
 C          0.5527975799       -1.4836262246        0.3662315079
 C         -0.0996202747       -0.2864902707        0.7636486815
 N         -1.4359926808       -0.1042226604        0.5119542462
 C         -2.2451593919       -1.2165724446        0.2077251643
 C         -3.0626642252       -1.1807268950       -0.9210021260
 C         -3.8702935964       -2.2602865269       -1.2164676139
 C         -3.8732189708       -3.3798719965       -0.3957218274
 C         -3.0578341300       -3.4166751173        0.7249811604
 C         -2.2446021238       -2.3427116316        1.0311758754
 C         -2.0709778397        1.1335202832        0.5686082246
 C         -3.4044970327        1.1989110284        0.9954896085
 C         -4.0546030144        2.4121786048        1.0693978201
 C         -3.3980982437        3.5846676258        0.7236631645
 C         -2.0789129255        3.5263807399        0.2967324802
 C         -1.4168391977        2.3195380808        0.2205343514
 C          0.6469519300        0.6382851457        1.5461165075
 C          1.9616137486        0.4148464835        1.8217192069
 C          3.1189613947        1.4489376185       -0.7177781866
 C          1.8877025810        1.6582779982       -1.2557477789
 H          1.4433919543       -1.3827693288       -2.7498072627
 H          3.6914989659       -1.7162215787       -1.8104229218
 H          5.7864756893        0.7683510528       -0.5336618549
 H          5.5134241537       -0.9799379373       -0.5339540414
 H          6.0316087929       -0.2206604616        1.7465071358
 H          4.7466742906        0.9896202569        1.6670181089
 H          4.0455470354       -1.0449093749        2.9131779972
 H          4.3278086557       -2.0277045409        1.4694750310
 H          2.3268364623       -2.6347812277        0.3789208751
 H          0.0027241804       -2.2125893655       -0.2073592732
 H         -3.0188148976       -0.3162270657       -1.5655673742
 H         -4.4955992654       -2.2329055523       -2.0955256219
 H         -4.5062084244       -4.2216663311       -0.6304946902
 H         -3.0603370485       -4.2840425888        1.3679911199
 H         -1.6167543499       -2.3575003119        1.9100525424
 H         -3.9164122679        0.2925076837        1.2809881175
 H         -5.0802530751        2.4463566754        1.4048281361
 H         -3.9104387119        4.5323905985        0.7804069622
 H         -1.5664454352        4.4322303315        0.0086369229
 H         -0.4089325825        2.2741721749       -0.1503538340
 H          0.1445317720        1.4962193308        1.9647778653
 H          2.4999694752        1.1206043476        2.4373549938
 H          3.6310141287        2.2568002551       -0.2139417485
 H          1.4242789781        2.6339650117       -1.2072787116
