  54
  -77.5629189112000       0.645232415600627      !
 N         -1.1975633651        0.8237654142       -2.7370568610
 C         -0.0987221596        0.7355798607       -2.3691852312
 C          1.2007044121        0.5967403341       -1.9162308068
 C          1.9107931740       -0.6176024203       -2.1468888444
 C          3.1558263483       -0.7957092681       -1.6229961326
 C          3.7503496054        0.1826781469       -0.7962239842
 C          5.1065471338       -0.0226862809       -0.2020442254
 C          5.0464785615       -0.0025934676        1.3287696217
 C          4.0294241934       -1.0372786085        1.8178706862
 C          2.6409075032       -0.7377992593        1.3528326824
 C          1.8603240972       -1.7085698075        0.6792066036
 C          0.5527975799       -1.4836262246        0.3662315079
 C         -0.0996202747       -0.2864902707        0.7636486815
 N         -1.4359926808       -0.1042226604        0.5119542462
 C         -2.2451593919       -1.2165724446        0.2077251643
 C         -3.0626642252       -1.1807268950       -0.9210021260
 C         -3.8702935964       -2.2602865269       -1.2164676139
 C         -3.8732189708       -3.3798719965       -0.3957218274
 C         -3.0578341300       -3.4166751173        0.7249811604
 C         -2.2446021238       -2.3427116316        1.0311758754
 C         -2.0709778397        1.1335202832        0.5686082246
 C         -3.4044970327        1.1989110284        0.9954896085
 C         -4.0546030144        2.4121786048        1.0693978201
 C         -3.3980982437        3.5846676258        0.7236631645
 C         -2.0789129255        3.5263807399        0.2967324802
 C         -1.4168391977        2.3195380808        0.2205343514
 C          0.6469519300        0.6382851457        1.5461165075
 C          1.9616137486        0.4148464835        1.8217192069
 C          3.1189613947        1.4489376185       -0.7177781866
 C          1.8877025810        1.6582779982       -1.2557477789
 H          1.4433919543       -1.3827693288       -2.7498072627
 H          3.6914989659       -1.7162215787       -1.8104229218
 H          5.7864756893        0.7683510528       -0.5336618549
 H          5.5134241537       -0.9799379373       -0.5339540414
 H          6.0316087929       -0.2206604616        1.7465071358
 H          4.7466742906        0.9896202569        1.6670181089
 H          4.0455470354       -1.0449093749        2.9131779972
 H          4.3278086557       -2.0277045409        1.4694750310
 H          2.3268364623       -2.6347812277        0.3789208751
 H          0.0027241804       -2.2125893655       -0.2073592732
 H         -3.0188148976       -0.3162270657       -1.5655673742
 H         -4.4955992654       -2.2329055523       -2.0955256219
 H         -4.5062084244       -4.2216663311       -0.6304946902
 H         -3.0603370485       -4.2840425888        1.3679911199
 H         -1.6167543499       -2.3575003119        1.9100525424
 H         -3.9164122679        0.2925076837        1.2809881175
 H         -5.0802530751        2.4463566754        1.4048281361
 H         -3.9104387119        4.5323905985        0.7804069622
 H         -1.5664454352        4.4322303315        0.0086369229
 H         -0.4089325825        2.2741721749       -0.1503538340
 H          0.1445317720        1.4962193308        1.9647778653
 H          2.4999694752        1.1206043476        2.4373549938
 H          3.6310141287        2.2568002551       -0.2139417485
 H          1.4242789781        2.6339650117       -1.2072787116
  54
  -77.5623536583000       0.354767584399373      !
 N         -1.1976363056        0.8531801497       -2.7451467633
 C         -0.1031019522        0.7813507501       -2.3614609365
 C          1.1921700763        0.6557553291       -1.8924635422
 C          1.9130636791       -0.5521415080       -2.1206875969
 C          3.1507279669       -0.7243980946       -1.5835393876
 C          3.7301578576        0.2566854062       -0.7404941528
 C          5.0829026786        0.0246160292       -0.1487898700
 C          5.0482026916       -1.1472126860        0.8356463304
 C          4.0308141374       -0.8560323983        1.9418191672
 C          2.6542852104       -0.5875728200        1.4212217815
 C          1.9020525725       -1.5994387650        0.7691879148
 C          0.5949023762       -1.4130032219        0.4340855265
 C         -0.0917976701       -0.2214124879        0.7895083231
 N         -1.4286548899       -0.0762720162        0.5160905281
 C         -2.2072275778       -1.2114172894        0.2152087733
 C         -3.0051734350       -1.2099898065       -0.9278808477
 C         -3.7848441330       -2.3108988550       -1.2204157591
 C         -3.7784873251       -3.4177234659       -0.3828524524
 C         -2.9826441751       -3.4201021369        0.7525017685
 C         -2.1980933433       -2.3242597924        1.0561704174
 C         -2.0972681506        1.1453538234        0.5507880022
 C         -3.4355338273        1.1788189469        0.9657111313
 C         -4.1191309176        2.3746419467        1.0223881968
 C         -3.4917195397        3.5611959847        0.6712479386
 C         -2.1686599261        3.5343167709        0.2539579221
 C         -1.4737763286        2.3449126056        0.1936796784
 C          0.6230854286        0.7421784755        1.5532225132
 C          1.9408880524        0.5596664795        1.8467959075
 C          3.0952593721        1.5186825696       -0.6747346649
 C          1.8672366891        1.7218745231       -1.2257620904
 H          1.4581126632       -1.3163032503       -2.7347912990
 H          3.6992222632       -1.6348880013       -1.7793882122
 H          5.4230131668        0.9244648672        0.3677133717
 H          5.8041149290       -0.2049842510       -0.9402294409
 H          4.7642045696       -2.0576330503        0.3077351199
 H          6.0359978022       -1.3045713634        1.2737809316
 H          4.3714655637        0.0049942834        2.5206374172
 H          3.9952987728       -1.7206981043        2.6136630002
 H          2.3897379600       -2.5265849243        0.5097656493
 H          0.0684686849       -2.1731145871       -0.1211324882
 H         -2.9692658994       -0.3540013699       -1.5844393314
 H         -4.3949218842       -2.3102185710       -2.1107980476
 H         -4.3890956839       -4.2765026619       -0.6157132322
 H         -2.9784986711       -4.2773309540        1.4090257593
 H         -1.5868940455       -2.3114148667        1.9469099410
 H         -3.9257133558        0.2617250192        1.2555019771
 H         -5.1483854187        2.3838131612        1.3485757306
 H         -4.0296551440        4.4952708172        0.7160577450
 H         -1.6781769849        4.4508699312       -0.0387859261
 H         -0.4627341655        2.3244977232       -0.1708724741
 H          0.0971645547        1.5992660500        1.9432917674
 H          2.4581735347        1.3008936381        2.4391137117
 H          3.5942480658        2.3277845883       -0.1592772573
 H          1.3989125360        2.6951591408       -1.1820302893
