  54
  -77.9073304800000       0.237085061156862      !
 N         -1.1975633651        0.8237654142       -2.7370568610
 C         -0.0987221596        0.7355798607       -2.3691852312
 C          1.2007044121        0.5967403341       -1.9162308068
 C          1.9107931740       -0.6176024203       -2.1468888444
 C          3.1558263483       -0.7957092681       -1.6229961326
 C          3.7503496054        0.1826781469       -0.7962239842
 C          5.1065471338       -0.0226862809       -0.2020442254
 C          5.0464785615       -0.0025934676        1.3287696217
 C          4.0294241934       -1.0372786085        1.8178706862
 C          2.6409075032       -0.7377992593        1.3528326824
 C          1.8603240972       -1.7085698075        0.6792066036
 C          0.5527975799       -1.4836262246        0.3662315079
 C         -0.0996202747       -0.2864902707        0.7636486815
 N         -1.4359926808       -0.1042226604        0.5119542462
 C         -2.2451593919       -1.2165724446        0.2077251643
 C         -3.0626642252       -1.1807268950       -0.9210021260
 C         -3.8702935964       -2.2602865269       -1.2164676139
 C         -3.8732189708       -3.3798719965       -0.3957218274
 C         -3.0578341300       -3.4166751173        0.7249811604
 C         -2.2446021238       -2.3427116316        1.0311758754
 C         -2.0709778397        1.1335202832        0.5686082246
 C         -3.4044970327        1.1989110284        0.9954896085
 C         -4.0546030144        2.4121786048        1.0693978201
 C         -3.3980982437        3.5846676258        0.7236631645
 C         -2.0789129255        3.5263807399        0.2967324802
 C         -1.4168391977        2.3195380808        0.2205343514
 C          0.6469519300        0.6382851457        1.5461165075
 C          1.9616137486        0.4148464835        1.8217192069
 C          3.1189613947        1.4489376185       -0.7177781866
 C          1.8877025810        1.6582779982       -1.2557477789
 H          1.4433919543       -1.3827693288       -2.7498072627
 H          3.6914989659       -1.7162215787       -1.8104229218
 H          5.7864756893        0.7683510528       -0.5336618549
 H          5.5134241537       -0.9799379373       -0.5339540414
 H          6.0316087929       -0.2206604616        1.7465071358
 H          4.7466742906        0.9896202569        1.6670181089
 H          4.0455470354       -1.0449093749        2.9131779972
 H          4.3278086557       -2.0277045409        1.4694750310
 H          2.3268364623       -2.6347812277        0.3789208751
 H          0.0027241804       -2.2125893655       -0.2073592732
 H         -3.0188148976       -0.3162270657       -1.5655673742
 H         -4.4955992654       -2.2329055523       -2.0955256219
 H         -4.5062084244       -4.2216663311       -0.6304946902
 H         -3.0603370485       -4.2840425888        1.3679911199
 H         -1.6167543499       -2.3575003119        1.9100525424
 H         -3.9164122679        0.2925076837        1.2809881175
 H         -5.0802530751        2.4463566754        1.4048281361
 H         -3.9104387119        4.5323905985        0.7804069622
 H         -1.5664454352        4.4322303315        0.0086369229
 H         -0.4089325825        2.2741721749       -0.1503538340
 H          0.1445317720        1.4962193308        1.9647778653
 H          2.4999694752        1.1206043476        2.4373549938
 H          3.6310141287        2.2568002551       -0.2139417485
 H          1.4242789781        2.6339650117       -1.2072787116
  54
  -77.9073294900000       0.236836817843250      !
 N         -1.1607166909        0.5992416758        2.8136533861
 C         -0.0696666883        0.5393947743        2.4178766384
 C          1.2208985361        0.4345546306        1.9313256368
 C          1.9034966361        1.5469216553        1.3554372020
 C          3.1246003968        1.3799763592        0.7808222866
 C          3.7504162743        0.1089652892        0.7382379576
 C          5.0997483831       -0.0467570805        0.1141184907
 C          5.0245174885        0.1072066136       -1.4082923411
 C          3.9983905099       -0.8780482315       -1.9744037569
 C          2.6171363190       -0.6187306416       -1.4652254036
 C          1.8440607011       -1.6444843791       -0.8689873299
 C          0.5421339062       -1.4465837784       -0.5175116718
 C         -0.1136475696       -0.2183541363       -0.7980606147
 N         -1.4438465543       -0.0563142732       -0.5013260907
 C         -2.2452425894       -1.1933564470       -0.2764811458
 C         -2.2706080677       -2.2372015581       -1.2015874657
 C         -3.0694426852       -3.3402366278       -0.9696319736
 C         -3.8449394762       -3.4133810254        0.1773422116
 C         -3.8175990396       -2.3748335551        1.0980557549
 C         -3.0237623275       -1.2673543143        0.8775121883
 C         -2.0759268850        1.1813479646       -0.4272359519
 C         -1.4036533386        2.3344421556       -0.0090629384
 C         -2.0642259513        3.5433130403        0.0445863668
 C         -3.4007258435        3.6370024443       -0.3169457833
 C         -4.0756388076        2.4972930710       -0.7304668602
 C         -3.4266697422        1.2826027108       -0.7886322708
 C          0.6213579735        0.7678148050       -1.5130075003
 C          1.9318879011        0.5691879761       -1.8255001992
 C          3.1629051709       -0.9355932407        1.4858693388
 C          1.9270036288       -0.7987982706        2.0425406579
 H          1.4456052733        2.5252849560        1.4021916188
 H          3.6338147443        2.2266863797        0.3419379583
 H          5.5070774170       -1.0302799984        0.3573306859
 H          5.7851385826        0.7109854556        0.5070471606
 H          4.7253350823        1.1260614920       -1.6557955799
 H          6.0044923072       -0.0767255057       -1.8537367241
 H          4.2982680792       -1.8962128533       -1.7193918628
 H          3.9997235886       -0.7882386704       -3.0662324153
 H          2.3126215476       -2.5943270815       -0.6592943739
 H         -0.0002241064       -2.2230432489       -0.0020206561
 H         -1.6728842207       -2.1658609924       -2.0986585450
 H         -3.0910543193       -4.1442362199       -1.6899552572
 H         -4.4651829998       -4.2784148089        0.3551371434
 H         -4.4112197631       -2.4342344949        1.9975165927
 H         -2.9590241107       -0.4666905243        1.5985219408
 H         -0.3808121505        2.2598780003        0.3128774517
 H         -1.5360741994        4.4221368704        0.3837589199
 H         -3.9119659137        4.5858682678       -0.2708588996
 H         -5.1154250615        2.5586466957       -1.0147792363
 H         -3.9543819383        0.4036635327       -1.1262956818
 H          0.1133431667        1.6565037611       -1.8535478369
 H          2.4607344252        1.3237558324       -2.3891886663
 H          3.6967165536       -1.8708303779        1.5841647231
 H          1.4642582200       -1.6113865028        2.5839858398
  54
  -77.9073278900000       0.236436165917372      !
 N         -1.1966226239        0.7455254041       -2.7578922262
 C         -0.1010436240        0.5603185495       -2.4173067960
 C          1.1962766671        0.3609926145       -1.9806589231
 C          1.7927119479       -0.9347393253       -1.9507523719
 C          3.0246533594       -1.1107735481       -1.4024567579
 C          3.7456433969       -0.0233581799       -0.8488639097
 C          5.1007807414       -0.2392413800       -0.2560361582
 C          5.0086210809       -1.0155087946        1.0617946954
 C          4.0544361245       -0.2951348001        2.0183626883
 C          2.6589319925       -0.2235742554        1.4874348006
 C          1.8918889684       -1.4052671096        1.3282162238
 C          0.5707766611       -1.3682297492        1.0003046356
 C         -0.0941686525       -0.1264847881        0.7991819877
 N         -1.4351722571       -0.0638365821        0.5158736342
 C         -2.1581496319       -1.1177744355       -0.0367328772
 C         -1.5858824808       -2.0145010452       -0.9444239535
 C         -2.3330280602       -3.0515536748       -1.4614483288
 C         -3.6581999755       -3.2247095679       -1.0874151051
 C         -4.2341989633       -2.3372007846       -0.1897930287
 C         -3.4984788599       -1.2951711132        0.3329170873
 C         -2.1582805776        1.1046657940        0.8257424306
 C         -2.0903108325        1.6654419162        2.1014533588
 C         -2.8205851758        2.8018353352        2.3909622192
 C         -3.6198031054        3.3861282396        1.4201736720
 C         -3.6840754836        2.8292949257        0.1500224235
 C         -2.9593223058        1.6939606320       -0.1515040338
 C          0.6477608593        1.0598251322        1.0421612129
 C          1.9610456983        1.0059390446        1.4034573296
 C          3.2394978250        1.2771219615       -1.0676367922
 C          1.9960046678        1.4740462630       -1.5882785112
 H          1.2601108331       -1.7682462570       -2.3874748711
 H          3.4677840441       -2.0966646313       -1.3785408231
 H          5.5813798525        0.7243601241       -0.0739763981
 H          5.7292430677       -0.8060858884       -0.9504319724
 H          4.6356892056       -2.0210503953        0.8651011440
 H          5.9975722938       -1.1031955976        1.5167683019
 H          4.4271814154        0.7131553006        2.2074374327
 H          4.0470825656       -0.8372240261        2.9703849615
 H          2.3671796189       -2.3602074890        1.4987319652
 H          0.0020607937       -2.2830744730        0.9417437802
 H         -0.5724987093       -1.8594952590       -1.2679771643
 H         -1.8824267877       -3.7273414609       -2.1730912671
 H         -4.2371160510       -4.0384415296       -1.4956227853
 H         -5.2641891809       -2.4631176852        0.1087040342
 H         -3.9486765870       -0.6176527201        1.0425579475
 H         -1.4764908762        1.1953519857        2.8560228553
 H         -2.7709722303        3.2295927963        3.3811663235
 H         -4.1877439349        4.2741207186        1.6512664604
 H         -4.2964643377        3.2883188772       -0.6110800204
 H         -2.9672648974        1.2667043914       -1.1425957731
 H          0.1615846526        2.0144428712        0.9189433169
 H          2.4969777488        1.9228131632        1.5976449353
 H          3.8428828223        2.1271723417       -0.7799061274
 H          1.5962855677        2.4693171287       -1.7204129600
  54
  -77.9068667300000       0.145137435833644      !
 N         -1.1976363056        0.8531801497       -2.7451467633
 C         -0.1031019522        0.7813507501       -2.3614609365
 C          1.1921700763        0.6557553291       -1.8924635422
 C          1.9130636791       -0.5521415080       -2.1206875969
 C          3.1507279669       -0.7243980946       -1.5835393876
 C          3.7301578576        0.2566854062       -0.7404941528
 C          5.0829026786        0.0246160292       -0.1487898700
 C          5.0482026916       -1.1472126860        0.8356463304
 C          4.0308141374       -0.8560323983        1.9418191672
 C          2.6542852104       -0.5875728200        1.4212217815
 C          1.9020525725       -1.5994387650        0.7691879148
 C          0.5949023762       -1.4130032219        0.4340855265
 C         -0.0917976701       -0.2214124879        0.7895083231
 N         -1.4286548899       -0.0762720162        0.5160905281
 C         -2.2072275778       -1.2114172894        0.2152087733
 C         -3.0051734350       -1.2099898065       -0.9278808477
 C         -3.7848441330       -2.3108988550       -1.2204157591
 C         -3.7784873251       -3.4177234659       -0.3828524524
 C         -2.9826441751       -3.4201021369        0.7525017685
 C         -2.1980933433       -2.3242597924        1.0561704174
 C         -2.0972681506        1.1453538234        0.5507880022
 C         -3.4355338273        1.1788189469        0.9657111313
 C         -4.1191309176        2.3746419467        1.0223881968
 C         -3.4917195397        3.5611959847        0.6712479386
 C         -2.1686599261        3.5343167709        0.2539579221
 C         -1.4737763286        2.3449126056        0.1936796784
 C          0.6230854286        0.7421784755        1.5532225132
 C          1.9408880524        0.5596664795        1.8467959075
 C          3.0952593721        1.5186825696       -0.6747346649
 C          1.8672366891        1.7218745231       -1.2257620904
 H          1.4581126632       -1.3163032503       -2.7347912990
 H          3.6992222632       -1.6348880013       -1.7793882122
 H          5.4230131668        0.9244648672        0.3677133717
 H          5.8041149290       -0.2049842510       -0.9402294409
 H          4.7642045696       -2.0576330503        0.3077351199
 H          6.0359978022       -1.3045713634        1.2737809316
 H          4.3714655637        0.0049942834        2.5206374172
 H          3.9952987728       -1.7206981043        2.6136630002
 H          2.3897379600       -2.5265849243        0.5097656493
 H          0.0684686849       -2.1731145871       -0.1211324882
 H         -2.9692658994       -0.3540013699       -1.5844393314
 H         -4.3949218842       -2.3102185710       -2.1107980476
 H         -4.3890956839       -4.2765026619       -0.6157132322
 H         -2.9784986711       -4.2773309540        1.4090257593
 H         -1.5868940455       -2.3114148667        1.9469099410
 H         -3.9257133558        0.2617250192        1.2555019771
 H         -5.1483854187        2.3838131612        1.3485757306
 H         -4.0296551440        4.4952708172        0.7160577450
 H         -1.6781769849        4.4508699312       -0.0387859261
 H         -0.4627341655        2.3244977232       -0.1708724741
 H          0.0971645547        1.5992660500        1.9432917674
 H          2.4581735347        1.3008936381        2.4391137117
 H          3.5942480658        2.3277845883       -0.1592772573
 H          1.3989125360        2.6951591408       -1.1820302893
  54
  -77.9068626000000       0.144504519248872      !
 N         -1.2047991976        0.7185846484       -2.7908439387
 C         -0.1155326715        0.5143598638       -2.4410769125
 C          1.1753009137        0.2996642818       -1.9924204718
 C          1.7658710360       -0.9994284783       -1.9657142230
 C          2.9955417479       -1.1829684831       -1.4113753241
 C          3.7144373998       -0.1049428192       -0.8446025591
 C          5.0709638971       -0.2923644353       -0.2455091372
 C          5.0995842634        0.2148063916        1.1986841868
 C          4.0482546928       -0.5317273561        2.0235228271
 C          2.6646412039       -0.4016698477        1.4704210659
 C          1.8630417253       -1.5527082477        1.2728535575
 C          0.5404776862       -1.4674288217        0.9573605298
 C         -0.0894371760       -0.2019547689        0.8014524059
 N         -1.4278695160       -0.0937664140        0.5196609940
 C         -2.1828297919       -1.1159521283       -0.0518691255
 C         -1.6422302846       -2.0090659637       -0.9819868264
 C         -2.4227072133       -3.0123117388       -1.5165134051
 C         -3.7504518531       -3.1540582634       -1.1388726308
 C         -4.2950630830       -2.2696419213       -0.2190703048
 C         -3.5256834191       -1.2615388130        0.3216217357
 C         -2.1178844896        1.0914661736        0.8421296294
 C         -2.0473880316        1.6306669984        2.1266646170
 C         -2.7467495829        2.7840750744        2.4258509983
 C         -3.5177194677        3.4064618874        1.4559563945
 C         -3.5848146681        2.8707387408        0.1771952257
 C         -2.8906359573        1.7188409298       -0.1340576332
 C          0.6873883942        0.9535413537        1.0827363503
 C          1.9985641491        0.8512465493        1.4375178026
 C          3.2149109084        1.2030401941       -1.0650439262
 C          1.9779048295        1.4070531140       -1.5925837744
 H          1.2322401426       -1.8289927047       -2.4080861348
 H          3.4307855771       -2.1725012265       -1.3831080534
 H          5.8166017314        0.2618911842       -0.8250934420
 H          5.3442304229       -1.3492761669       -0.2658321633
 H          6.0889870215        0.0624173431        1.6348927184
 H          4.8852173110        1.2834871374        1.2133566907
 H          4.0630184548       -0.1325390749        3.0437644928
 H          4.3191855550       -1.5884386050        2.0728035293
 H          2.3153363370       -2.5262331950        1.3971216446
 H         -0.0526587288       -2.3641303116        0.8716512570
 H         -0.6268121262       -1.8775258513       -1.3095026828
 H         -1.9959624671       -3.6852237905       -2.2454604482
 H         -4.3556305179       -3.9409310843       -1.5613487333
 H         -5.3264729393       -2.3718132338        0.0833403158
 H         -3.9515626868       -0.5867687337        1.0486160174
 H         -1.4564221454        1.1309598525        2.8804557705
 H         -2.6953444141        3.1955384788        3.4227786708
 H         -4.0613888385        4.3076139755        1.6948362867
 H         -4.1747790347        3.3591588116       -0.5832722812
 H         -2.9017552757        1.3060339351       -1.1313623937
 H          0.2273986126        1.9253116248        0.9987355539
 H          2.5566182945        1.7452522480        1.6700654759
 H          3.8248291781        2.0497422445       -0.7832872046
 H          1.5841376604        2.4045550022       -1.7269421634
