57
 energy: -86.100520097294 gnorm: 0.000039338189 xtb: 6.7.1 (edcfbbe)
C           -2.94351923267081        3.00053029577173        2.83018197954495
C           -2.65156972849099        1.73951014270224        3.32828359586749
C           -2.38906982540471        0.67947232538869        2.47087922817800
C           -2.42557397525968        0.91001238595702        1.11322092797754
C           -2.71970168808602        2.18315178921435        0.60359847651923
C           -2.98061055340669        3.23592981045699        1.46510115994185
C           -2.68395142910431        2.11749918828156       -0.84888307970456
C           -2.90147179479589        3.08765582861880       -1.81325514150914
C           -2.79900840354554        2.73035097894585       -3.14814976641257
C           -2.48503513031519        1.43049188733973       -3.51583273412195
C           -2.26549621316979        0.45278467639623       -2.55476902785489
C           -2.36706968821076        0.80451584959211       -1.22679406855390
C           -2.17680825158108       -0.06780233550307       -0.00956459899740
C           -3.09734140359797       -1.26360480562835        0.02081740187410
C           -4.46873154386657       -1.28492817504085       -0.01209955772070
C           -5.11763370887246       -2.51749291437546        0.02518121401884
C           -4.39081116112235       -3.70307740887364        0.09444146833328
C           -3.01217589432055       -3.69402945924363        0.12820032533921
C           -2.34667579964887       -2.46358786490226        0.09213820989376
C           -0.96333335613957       -2.14021238558333        0.11515966645034
C            0.19631984152651       -2.93542927393128        0.17597861647831
C            1.42109029648905       -2.33960533694148        0.16705747080064
C            1.59425403002088       -0.91441327368269        0.11639602778834
C            2.87681781523639       -0.32404810595503        0.12684971403448
C            3.07304181673689        1.05724039724441        0.39780319614800
C            4.30689964695495        1.62187654591258        0.43474628498856
C            5.49382655211836        0.86305593746685        0.17797317677043
C            6.75928669615468        1.42401928359778        0.19983833822697
C            7.89145591734925        0.64727619094498       -0.06161705985655
C            7.75421366749004       -0.70265195135336       -0.34904116226699
C            6.50570535475202       -1.28872761968827       -0.37669434681306
C            5.33889699274282       -0.52591303573582       -0.11281146131650
C            4.07098035726387       -1.09189360085166       -0.13199166283021
C            0.39911650096547       -0.12289001442639        0.06307531846662
C           -0.81562997201514       -0.72152157820950        0.05784016704429
H           -3.14464188147372        3.80993989535377        3.51697818962374
H           -2.62812670228425        1.58011882362132        4.39631625758850
H           -2.16141863436083       -0.30310982708410        2.85820381542386
H           -3.20832034223924        4.21978525794145        1.08224188687248
H           -3.14633240205346        4.10123801491352       -1.53199974375004
H           -2.96592002911090        3.47393143424155       -3.91397474925211
H           -2.41057388567807        1.17555894523462       -4.56278065424656
H           -2.02100942400359       -0.56002688260406       -2.84065608402158
H           -5.03476911619085       -0.36617090825989       -0.06633335537443
H           -6.19633714528224       -2.55368906515069       -0.00032674047678
H           -4.92003930502691       -4.64476725443353        0.12209669330341
H           -2.45240511033102       -4.61573395810931        0.18214981131754
H            0.10871438791170       -4.01065244023192        0.23360491567918
H            2.29590133951060       -2.96486464809324        0.24473000938149
H            2.21797269016387        1.67484508279708        0.62524457317931
H            4.41861709671023        2.67061275443562        0.67139137075658
H            6.87046016491517        2.47652302315935        0.41929841595040
H            8.87031737921091        1.10189805793716       -0.04047473940869
H            8.63164840560330       -1.29924318894863       -0.55330506917372
H            6.39980157588771       -2.34068993697900       -0.59878043796674
H            3.98854336930832       -2.13327353803818       -0.39818505469790
H            0.46137784340885        0.95134389282817       -0.01167523228243
