57
 energy: -86.189608748746 gnorm: 0.000032413346 xtb: 6.7.1 (edcfbbe)
C           -2.89139375472819        3.18137705777416        2.62669718065357
C           -2.64818071225347        1.94124005097455        3.19779638489157
C           -2.39877983989027        0.82943110086418        2.40423104537920
C           -2.39889178618912        0.98777200864600        1.03589271000436
C           -2.64294175549628        2.23944476558779        0.45243068148904
C           -2.89131625114255        3.34393655010741        1.25049218824973
C           -2.57574506925076        2.09477702709026       -0.99329728034574
C           -2.74413561373931        3.01671286735709       -2.01312726905791
C           -2.62191308873924        2.58507149080020       -3.32421351861292
C           -2.33645855338545        1.25935292253740       -3.61423666533688
C           -2.16626806913166        0.32946876240734       -2.59725099493395
C           -2.28774541741676        0.75538356030543       -1.29298873125423
C           -2.15459776526314       -0.05568856900064       -0.02703269711352
C           -3.11275221845506       -1.22042275876777        0.03963527277375
C           -4.48798683098361       -1.20022985169112       -0.03175144593838
C           -5.17155221255811       -2.40609737567711        0.05116711971294
C           -4.48623626319027       -3.60229277376755        0.20198258758860
C           -3.10273038816246       -3.62611571530644        0.27411644485436
C           -2.41382377968978       -2.42705373657318        0.19231178141730
C           -0.99182371939047       -2.13247781382010        0.23796563576194
C            0.11393284675836       -2.95500620288373        0.38031709149570
C            1.37259989307609       -2.38186256107929        0.39746467205111
C            1.54941228190533       -1.00247948329819        0.27853851711056
C            2.89830736155742       -0.42144143414079        0.31537357211266
C            3.12933013560730        0.77478744527479        1.03078907972247
C            4.37506588233978        1.32757680385371        1.08878268770053
C            5.46807767475654        0.72575788061936        0.43003834998732
C            6.76683016414292        1.27176319579727        0.46974789086641
C            7.80154653931128        0.66010003246970       -0.18125462008521
C            7.58364405823209       -0.52499298279692       -0.90168630887101
C            6.33592852013858       -1.07906268358444       -0.95880287648735
C            5.24692055774767       -0.47366453523328       -0.29625488753416
C            3.95140637220249       -1.02345277950724       -0.33225440356666
C            0.43149925268621       -0.17692503802920        0.13325854998955
C           -0.81947738311121       -0.74618009339068        0.11218182804876
H           -3.08332443572368        4.03202869804068        3.26455170643907
H           -2.65288882219160        1.83881096778515        4.27306451625584
H           -2.20915964526008       -0.13718183926639        2.84821921299002
H           -3.08075456452653        4.31193954683608        0.81063928054153
H           -2.96682336311143        4.05020336102322       -1.79243648603301
H           -2.75083883014420        3.29033269742844       -4.13244925635190
H           -2.24593881340878        0.94609669693810       -4.64395588985623
H           -1.94466769910088       -0.70373706394207       -2.82239418454132
H           -5.02119247801601       -0.26792531369868       -0.14934746596999
H           -6.25029371898867       -2.41236410119273       -0.00252270344450
H           -5.03987702720724       -4.52798249716567        0.26404062755755
H           -2.57342794214649       -4.56013561462797        0.39171642103459
H           -0.00213225174374       -4.02396454200015        0.48202058343111
H            2.24102192331062       -3.01083353559754        0.52947726672900
H            2.30484680940351        1.23684250162355        1.55435634268183
H            4.54362911806035        2.23829162313298        1.64638771496092
H            6.92915069232860        2.18463352774489        1.02556880279026
H            8.79473604058495        1.08376293841200       -0.14697981943192
H            8.41289417587620       -0.99461663935328       -1.41064917853170
H            6.16396402519110       -1.99170312456703       -1.51206671869107
H            3.79108645710847       -1.92767325025199       -0.90271005206674
H            0.55023581166034        0.89093598083895        0.01902035725774
