57
 energy: -86.100520203870 gnorm: 0.000094953794 xtb: 6.7.1 (edcfbbe)
C           -2.91603191818951        3.12786992384327        2.71538409531244
C           -2.63362639542825        1.88196369963705        3.25525719483416
C           -2.38022366336860        0.79173715224871        2.43370125264808
C           -2.41579272852111        0.97693685525602        1.06908709763716
C           -2.69998029820686        2.23473038232916        0.51733038097479
C           -2.95209295159487        3.31775695262126        1.34320546698111
C           -2.66480277315434        2.12061856026411       -0.93216224352105
C           -2.87475061421243        3.05974116266035       -1.92841363306017
C           -2.77442515609038        2.65748424861246       -3.25061851249890
C           -2.46979005457164        1.34388015665641       -3.57472546904260
C           -2.25824986964571        0.39700602513695       -2.58155786142974
C           -2.35795121575889        0.79347130877154       -1.26611434697571
C           -2.17666811934418       -0.03991125777547       -0.02034753536519
C           -3.11147717211534       -1.22324827460458        0.04566986606226
C           -4.48314346578801       -1.22863521027598        0.01755001435136
C           -5.14676055097849       -2.45180123608095        0.08877629250920
C           -4.43402584498228       -3.64398015872330        0.18599544829975
C           -3.05526112080493       -3.65085817845315        0.21520130325200
C           -2.37505710439991       -2.42992700883615        0.14575672023875
C           -0.98783446343863       -2.12256853402975        0.15849566342601
C            0.16226982155148       -2.93000333705035        0.23662496556610
C            1.39407183578233       -2.34901486556291        0.21487674244659
C            1.58353896330110       -0.92741496674154        0.13548423390530
C            2.87280903156633       -0.35158747324473        0.14199324758303
C            3.08338650880803        1.03027160880136        0.39767506577484
C            4.32373434545551        1.58061724439751        0.43612012940366
C            5.50294687451778        0.80490030638444        0.19479901263216
C            6.77483789049689        1.35102108281350        0.21873836376300
C            7.89927876858773        0.55834943255420       -0.02818915873368
C            7.74768535075677       -0.79252978271164       -0.30318538261804
C            6.49243423399645       -1.36416513359462       -0.33217622662703
C            5.33329261218650       -0.58512142674656       -0.08259764978623
C            4.05888011527907       -1.13636187016043       -0.10263780274750
C            0.39824700392354       -0.12322137102710        0.06043879574697
C           -0.82352549874460       -0.70750512804300        0.06678762769579
H           -3.11037016660489        3.96135822217608        3.37478608313905
H           -2.61062711179893        1.75824590719295        4.32801669227150
H           -2.16010489607352       -0.17908591698713        2.85365090866071
H           -3.17220797436731        4.29002144117181        0.92769216313703
H           -3.11234228493557        4.08387009905247       -1.68121304260149
H           -2.93571325991766        3.37635102812228       -4.04084937107068
H           -2.39654012353649        1.05379662983644       -4.61256667494317
H           -2.02118091889332       -0.62655063258561       -2.83339792818545
H           -5.03811015605879       -0.30468097431987       -0.05855117494909
H           -6.22591042717629       -2.47551106693362        0.06783181830288
H           -4.97450514869722       -4.57813540915394        0.23941352244146
H           -2.50654191038212       -4.57764864300011        0.29111905019157
H            0.06191674737136       -4.00260472005207        0.31757120303931
H            2.26177887288812       -2.98232652776782        0.30619609161312
H            2.23413111656257        1.66001068912056        0.61359226183376
H            4.44659484779782        2.63037027339956        0.66252106381152
H            6.89724588657023        2.40424090632902        0.42846142080282
H            8.88330966018288        1.00159636211375       -0.00558006902943
H            8.61909784459571       -1.40145792975297       -0.49649577638006
H            6.37540885375695       -2.41698145769800       -0.54428238983673
H            3.96480077580510       -2.17919930513355       -0.35929189876096
H            0.47393004188183        0.94806884569776       -0.04025146146707
