  57
        -86.18960161
 C         -2.8856815157        3.1823851905        2.6270079168
 C         -2.6410517978        1.9425039414        3.1980567011
 C         -2.3945622077        0.8301043125        2.4044227785
 C         -2.3987138553        0.9876122947        1.0359922312
 C         -2.6442546784        2.2390320196        0.4525967040
 C         -2.8899394179        3.3440704013        1.2507413011
 C         -2.5791899634        2.0941262441       -0.9932070041
 C         -2.7494579404        3.0158395122       -2.0129349735
 C         -2.6263242864        2.5845602376       -3.3240598316
 C         -2.3380605202        1.2594615059       -3.6141505292
 C         -2.1668998789        0.3296339622       -2.5972712373
 C         -2.2896103333        0.7551013187       -1.2929740922
 C         -2.1554753634       -0.0559347144       -0.0270646870
 C         -3.1132795717       -1.2209983799        0.0397197422
 C         -4.4885460773       -1.2014563200       -0.0318284380
 C         -5.1714447560       -2.4078107003        0.0494418426
 C         -4.4855303592       -3.6039230066        0.1987278387
 C         -3.1020521931       -3.6270758062        0.2714997627
 C         -2.4138198588       -2.4274732930        0.1914085947
 C         -0.9919348448       -2.1323768550        0.2375685160
 C          0.1141105522       -2.9543569391        0.3806423601
 C          1.3725178565       -2.3806075967        0.3976911515
 C          1.5487182864       -1.0012600704        0.2778535381
 C          2.8973691505       -0.4197130480        0.3141428303
 C          3.1284367874        0.7762674994        1.0296386918
 C          4.3743330948        1.3285888629        1.0881171337
 C          5.4674321396        0.7263385977        0.4302034571
 C          6.7667632737        1.2707233786        0.4722087861
 C          7.8018786257        0.6578681764       -0.1769395464
 C          7.5837074917       -0.5264222184       -0.8984430762
 C          6.3352779533       -1.0785929056       -0.9583020797
 C          5.2459587639       -0.4723247049       -0.2970191086
 C          3.9501388323       -1.0212435807       -0.3340483599
 C          0.4304917648       -0.1761909152        0.1325829037
 C         -0.8201759157       -0.7460160339        0.1118157162
 H         -3.0750412018        4.0335369011        3.2649649418
 H         -2.6420845290        1.8408190438        4.2733942211
 H         -2.2036165735       -0.1361962647        2.8485067295
 H         -3.0804071851        4.3118355629        0.8108239244
 H         -2.9742432251        4.0488538365       -1.7920766456
 H         -2.7575906528        3.2894684176       -4.1323171886
 H         -2.2472151531        0.9464394653       -4.6439423559
 H         -1.9438131440       -0.7031874048       -2.8225748050
 H         -5.0223105492       -0.2693428025       -0.1494569054
 H         -6.2501797968       -2.4146040729       -0.0047289136
 H         -5.0387508814       -4.5299854672        0.2603116025
 H         -2.5721355013       -4.5609323922        0.3890974172
 H         -0.0014956957       -4.0233201118        0.4833045813
 H          2.2411810479       -3.0090691417        0.5303132580
 H          2.3037941165        1.2385934911        1.5527335960
 H          4.5431237642        2.2389237564        1.6459426212
 H          6.9294032322        2.1831040801        1.0286367866
 H          8.7956657770        1.0798994822       -0.1401389296
 H          8.4132101027       -0.9969310372       -1.4061578132
 H          6.1629139080       -1.9902822422       -1.5128687036
 H          3.7896186960       -1.9254502210       -0.9045159872
 H          0.5488346214        0.8916743477        0.0175366839
