72
 energy: -111.522506988583 gnorm: 0.000036114862 xtb: 6.7.1 (edcfbbe)
N            2.86828568106592       -3.99872162350446       -0.62543330564252
C            1.79408976794856       -3.67337423329342       -0.33982771421553
C            0.48828026559774       -3.33925563492613       -0.01140584902722
C           -0.14637016550447       -4.29155771480553        0.77296918517793
N           -0.62304998006749       -5.09814180027382        1.45454194079642
C           -0.13185215143034       -2.13016651112269       -0.45776054124054
C            0.69986670080951       -1.02354800070701       -0.86052654963497
C            0.30659705081841       -0.17693151658416       -1.91810471502051
C            1.10446627809366        0.87197370129811       -2.32175505492665
C            2.30460079373985        1.13434589934526       -1.68511782399230
C            2.71153324257168        0.31728311842677       -0.61960370682768
N            3.89929387800613        0.60777162318886        0.05526896339362
C            4.27458775839192        1.93865174463503        0.25161189753331
C            5.62116155846937        2.30835161697983        0.19159039359598
C            5.98719202709340        3.62585660271092        0.38296386271569
C            5.02489723559903        4.59302719257771        0.63316225787623
C            3.68741593176623        4.23172066621241        0.69327670834147
C            3.30924574899180        2.91676732882999        0.50690217524554
C            4.70715551050502       -0.41994592994680        0.54694793188524
C            5.36837933194347       -0.27014551628342        1.76961713971215
C            6.17715797220619       -1.28148695018284        2.24700250767804
C            6.33938494693955       -2.45175013760763        1.51961946344304
C            5.68329474814750       -2.60579391829553        0.30793136778185
C            4.87167860956409       -1.60123838366723       -0.17978303966212
C            1.92173836581062       -0.75656322166645       -0.22880156734918
C           -1.56234406757353       -2.01957501145614       -0.49894994440043
C           -2.39944367682006       -3.14130532828619       -0.68391006899024
C           -3.77213784017498       -3.01062690094470       -0.68156917712366
C           -4.37217318386020       -1.77682364312114       -0.49478153706786
C           -3.56271252444456       -0.64711558422386       -0.30574103413588
N           -4.14605111199078        0.60842662194382       -0.10184851552725
C           -5.29485687202603        0.72815320237937        0.67807339936694
C           -5.49931181935463       -0.11680970734677        1.77288545433034
C           -6.64368285004264        0.00265507943416        2.53623395339789
C           -7.59714598588736        0.96144119056476        2.22792671300419
C           -7.39826105238275        1.80391615325850        1.14405637179619
C           -6.25976855384221        1.69237547911357        0.37136615775080
C           -3.54574669438172        1.74270532929514       -0.65504531377948
C           -3.48967916805766        2.93919199686186        0.06331542487206
C           -2.88471848170193        4.05083737378704       -0.48981655839439
C           -2.33110625046895        3.99015104208785       -1.75964227451969
C           -2.38925095028205        2.80573265289436       -2.47857684550898
C           -2.98942945760472        1.68775546597506       -1.93501518831405
C           -2.18240719809908       -0.77342248333886       -0.31311584856842
H           -0.61575746354137       -0.38583010390374       -2.43761164285619
H            0.79827106462345        1.48980095632126       -3.15226773210116
H            2.93976489789938        1.94134989471837       -2.01510032498488
H            6.36761325526858        1.55810827275545       -0.02244132802716
H            7.02962518174161        3.90121043677866        0.32707689101174
H            5.31604067170784        5.62165901978290        0.78087278876047
H            2.93364704877095        4.97757942199079        0.89614702562003
H            2.26991745992876        2.63144205498498        0.57320322589793
H            5.22575481317170        0.63295172304629        2.34464474034596
H            6.67583279596092       -1.16104859373951        3.19715287024161
H            6.97038611880522       -3.24179338179599        1.89729557689899
H            5.79566261029619       -3.51381146956759       -0.26334223370209
H            4.36578392946395       -1.72565610648493       -1.12489124650310
H            2.23411194845539       -1.36495966634639        0.60813501687774
H           -1.95701131854344       -4.11077996345256       -0.85753998201844
H           -4.38850362667945       -3.88298882550645       -0.84240983798475
H           -5.44597750333393       -1.67549652624787       -0.51435586639119
H           -4.74876520072045       -0.85151865187261        2.02450826213988
H           -6.78743910224079       -0.65175167889737        3.38304133049745
H           -8.48921408816789        1.05113563230827        2.82862589257754
H           -8.14043356146034        2.54706981364553        0.89368964429048
H           -6.11503372688799        2.33554999819851       -0.48385223765585
H           -3.90622424940348        2.98105054120219        1.05878302963965
H           -2.83877090009980        4.96839505340012        0.07751158980217
H           -1.85887373976358        4.86127058431911       -2.18740153435454
H           -1.97223718606387        2.75479031816696       -3.47301173771353
H           -3.04980500172372        0.76847740266449       -2.49806674288125
H           -1.57118059465998        0.09692807037888       -0.12394048428391
