72
 energy: -111.582700617667 gnorm: 0.000078987317 xtb: 6.7.1 (edcfbbe)
N            2.52277609866931       -4.73140311631256        0.26739540355407
C            1.45225991093016       -4.31606187092208        0.26488302471300
C            0.10821891007818       -3.88730964194260        0.23907072448310
C           -0.76797989335251       -4.76854524828954        0.90750608294874
N           -1.42928565857778       -5.50003466857113        1.49641626520417
C           -0.29410884765662       -2.74008201196008       -0.38422740847216
C            0.68398272022333       -1.80389657550058       -0.94004044371551
C            0.48237966415545       -1.29706139303633       -2.22543652031002
C            1.41278565278377       -0.43093560573886       -2.76885797447234
C            2.51163358666387       -0.02738217611178       -2.03667370823423
C            2.70617341508007       -0.49102088169661       -0.73051036543897
N            3.78067250834506       -0.04033571288581        0.02321831758733
C            4.28858850780606        1.25649600826541       -0.17299439745169
C            5.66427046122234        1.47850300833495       -0.15810022943349
C            6.16370906434542        2.75411261880762       -0.34213456688392
C            5.30402938941693        3.82101922429714       -0.54870803483722
C            3.93551710222598        3.60466375941654       -0.56130538640929
C            3.42659361303672        2.33419722896192       -0.36939348933055
C            4.36709562974719       -0.85014590178374        1.01148746193209
C            4.76182890361962       -0.29096251184409        2.22608093896013
C            5.35187599333730       -1.07997377091320        3.19507120671095
C            5.54911437658941       -2.43331988242599        2.97220044421076
C            5.15806390604521       -2.99249769168085        1.76640993688568
C            4.57572715003933       -2.20940245044835        0.78777984318626
C            1.79117378277269       -1.40261506360583       -0.20076771491253
C           -1.70822741171450       -2.40294702257015       -0.53046127819937
C           -2.65578230936779       -3.36684264916951       -0.87820856982786
C           -3.98257693865434       -2.99821763243114       -1.01249113894630
C           -4.38083476020411       -1.69436051993044       -0.79254012975665
C           -3.44538898439782       -0.71678404810138       -0.43374571338304
N           -3.84493934314776        0.59217612347753       -0.19540714149322
C           -5.11834029873238        0.85740278303927        0.33925584941704
C           -5.64478793517955        0.05647929402452        1.35138826120295
C           -6.89737693508509        0.32646784456923        1.86951558627048
C           -7.63570317970661        1.39915106279881        1.39602794028294
C           -7.11185364933366        2.20315645167122        0.39650709023452
C           -5.86371643193681        1.93590830082798       -0.13354516542087
C           -2.97850324519138        1.66860756415077       -0.44685767939475
C           -2.93011405308581        2.74848797995920        0.43369261411857
C           -2.08884948611559        3.81548576555095        0.18109234161389
C           -1.28105446971127        3.82009923714222       -0.94451901403101
C           -1.32577923298703        2.74916659559853       -1.82250225557238
C           -2.16921686181833        1.68115291962639       -1.58200104046182
C           -2.10562475576075       -1.08479370895250       -0.32133787803536
H           -0.37650606012704       -1.61344875878624       -2.79703090049086
H            1.28008657833938       -0.06502657026150       -3.77585350605699
H            3.23070469437425        0.65169016173738       -2.46907809122554
H            6.33428512541538        0.64553597665957       -0.00268782885336
H            7.23193961065287        2.91380236712283       -0.33160590095744
H            5.69835634199267        4.81506399719282       -0.69687152849158
H            3.25731349960196        4.43176460776105       -0.71181144459346
H            2.35913442734043        2.16891780343814       -0.36648878821405
H            4.60226669455472        0.76288539780612        2.40324187015701
H            5.65135647600136       -0.63597636477042        4.13328100358792
H            6.00554502891688       -3.04837992700314        3.73321865778040
H            5.30631655107140       -4.04528090601486        1.57955352328253
H            4.27623753694008       -2.65287903466645       -0.15025396632716
H            1.92383607191764       -1.76250362033668        0.80949874724147
H           -2.35088170637207       -4.38331073912076       -1.07503769441792
H           -4.71444882376340       -3.73765161366896       -1.30035889173430
H           -5.41889494333313       -1.42022358781544       -0.90383383860345
H           -5.06612449184165       -0.77394093922113        1.72983312932061
H           -7.29440186741741       -0.30032713919175        2.65463194178798
H           -8.61263675082452        1.60823670353415        1.80510157043886
H           -7.68228018099460        3.03985510146512        0.02065256758553
H           -5.45744648874894        2.55948598910262       -0.91653980479757
H           -3.55466543410054        2.74391008057665        1.31510389111162
H           -2.05952092689395        4.64464957418523        0.87281386621244
H           -0.62248562308336        4.65351554327660       -1.13755070652118
H           -0.70604069159620        2.74940858070601       -2.70697803297796
H           -2.20952543855791        0.85310364436935       -2.27413695298185
H           -1.36994687489163       -0.34868234173278       -0.03304398026113
