72
 energy: -111.523028926709 gnorm: 0.000031771661 xtb: 6.7.1 (edcfbbe)
N            1.59425005719127        2.90804142512721       -1.44863178710024
C            0.89104714543166        2.25118871789950       -0.80396958747774
C           -0.00757757008140        1.50687182588006       -0.05385715771619
C           -0.90724834559864        2.28647435381070        0.65785215568400
N           -1.61102441719605        2.97724340161584        1.26552030322152
C           -0.00414404188394        0.07648149521705       -0.02483319543735
C            1.19172100867386       -0.63638528674430       -0.38891371339576
C            1.11542774581172       -1.89572498773201       -1.02262817636923
C            2.25658237286450       -2.58549870578335       -1.37236337142676
C            3.51026621649138       -2.06323762058628       -1.10581737747554
C            3.61428973796709       -0.81338112216732       -0.47688334695956
N            4.87669759391688       -0.29341763600350       -0.18000429719753
C            5.11706183219362        1.07935483345696       -0.27922389121606
C            5.94257411448144        1.71750518824785        0.65076905947701
C            6.18967351782549        3.07109639694700        0.54191037293122
C            5.62274172085808        3.80638514034019       -0.48884240057446
C            4.80191423645387        3.17788340335807       -1.41245882383881
C            4.54643479931955        1.82486101353548       -1.31300995904199
C            5.90082347706636       -1.14966618391852        0.22872317241973
C            5.61936070856082       -2.25535466120171        1.03593174246221
C            6.63616324121080       -3.10153649016833        1.43221992968239
C            7.94366320555500       -2.86071407158911        1.03815719073424
C            8.22886338972820       -1.76371764196937        0.23864903085578
C            7.22028031467892       -0.91243551701308       -0.16662249408837
C            2.46656736754943       -0.11036646999516       -0.13589752138968
C           -1.19066208442437       -0.63643398153330        0.36087963609067
C           -1.10113899076409       -1.89090693754737        1.00460406763108
C           -2.23402832281156       -2.58480751879835        1.37150663825722
C           -3.49410865439743       -2.07176126134637        1.11613299262468
C           -3.61138508782279       -0.82598389153325        0.48138941182624
N           -4.87981602236816       -0.31083297747915        0.20048015842649
C           -5.12160198706213        1.06103558844654        0.30884995485329
C           -5.95521753580935        1.70369521516744       -0.61056014470050
C           -6.20145405302764        3.05666931815519       -0.49217702206941
C           -5.62636628714663        3.78621112807466        0.53808336507378
C           -4.79788007651646        3.15300495055750        1.45163463253079
C           -4.54240557179136        1.80089364103055        1.34197438876751
C           -5.90465061226340       -1.16923034499963       -0.19949716666689
C           -7.22228460758153       -0.93357923846128        0.20333661677776
C           -8.23158579181737       -1.78796785082897       -0.19332888457999
C           -7.94918375073386       -2.88678763859691       -0.99138128027880
C           -6.64361382762181       -3.12619879413345       -1.39273914681748
C           -5.62608651973941       -2.27691741853841       -1.00524544090152
C           -2.47244197839297       -0.11957259313674        0.12045394553912
H            0.14465491369349       -2.30176195273122       -1.26405720358040
H            2.17357250245837       -3.53849092375899       -1.87392959294190
H            4.40296376530681       -2.59199103155911       -1.40111542821451
H            6.36870483562584        1.14733497977499        1.46317822776650
H            6.82050023896546        3.55764096450692        1.27088901451189
H            5.81599378706918        4.86525078922307       -0.56922629490043
H            4.35015078580473        3.74101655534699       -2.21380957324095
H            3.90900874738330        1.33883466365570       -2.03579643314767
H            4.60395581109526       -2.43099120052057        1.35853196313722
H            6.40749490546677       -3.94898047132345        2.06108288028031
H            8.73561079237261       -3.52345565522810        1.35172030515990
H            9.24340421438676       -1.57477814334463       -0.07869504299923
H            7.43912955286269       -0.06852564460794       -0.80370436720564
H            2.56265710741229        0.83659307495610        0.37606232224053
H           -0.12575841793202       -2.29001280868548        1.23875562774386
H           -2.13962343731796       -3.53388631367302        1.87848369431695
H           -4.38058597635090       -2.60308516230406        1.42514590066220
H           -6.38773662088237        1.13776726111747       -1.42257711720930
H           -6.83804352754233        3.54723301910171       -1.21341892651494
H           -5.81897147955335        4.84460269701900        0.62572043548293
H           -4.34065665259278        3.71262791508879        2.25229939360901
H           -3.89933558708945        1.30976463430903        2.05644142142115
H           -7.43896510510564       -0.08852580668996        0.83962190785512
H           -9.24456078376405       -1.60008870667905        0.12962086643087
H           -8.74173166532534       -3.55197110487920       -1.29816909085923
H           -6.41711217304134       -3.97505164781469       -2.02049137972272
H           -4.61240768976832       -2.45143105028714       -1.33382389088640
H           -2.58122880967204        0.82286859311361       -0.39697666309258
