62
 energy: -87.833011129057 gnorm: 0.000039245228 xtb: 6.7.1 (edcfbbe)
C            1.72756458637049       -3.49553903498127       -2.92087389217380
C            0.92167757831468       -2.65103189731730       -1.98172198088914
C            1.56420307459543       -1.86606011305351       -1.03336905390334
C            0.84013009690106       -1.07901715075767       -0.15145549630855
P            1.48928287012205       -0.00874486489876        1.18049450229032
C            3.28521357991558       -0.37920601390363        1.07700326463276
C            3.67820129412880       -1.67283174789201        1.41982070028809
C            5.01523086560912       -2.01939929015535        1.44579185128131
C            5.98141176521100       -1.06879862257256        1.15339075988366
C            5.60132213833858        0.22665328893614        0.84527177016558
C            4.26168911633866        0.57474637895248        0.81432582682659
C            1.42274497517416        1.59198093532201        0.28638614594838
C            1.75891172176499        1.70956801858169       -1.05799116209058
C            1.67801702349806        2.93796642601057       -1.68638514732415
C            1.26044021214944        4.05574939302903       -0.98116384806352
C            0.92479204562279        3.94435955764421        0.35719135262070
C            1.00382806679099        2.71577340647665        0.98823666431913
C           -0.55427745265338       -1.07225672678805       -0.22378792882046
P           -1.35887978120640        0.01788673323127        0.99512103827327
C           -2.97846857200047       -0.84000343744898        1.13082379090830
C           -4.20566267213780       -0.30342886821376        0.76119122090446
C           -5.36704732264539       -1.03335709878823        0.95177823565195
C           -5.31723280114526       -2.29661920640409        1.51646921694797
C           -4.09731362406738       -2.83250024748347        1.90040517554747
C           -2.93793012571562       -2.10474913162381        1.71667683600071
C           -1.82191136289852        1.45338917865982       -0.04398442219124
C           -2.41053446084542        2.52887407343139        0.61841485120633
C           -2.76873994019290        3.66922786319172       -0.07409807209076
C           -2.52642162905292        3.75385365993256       -1.43609468748443
C           -1.92657091774130        2.69542134828908       -2.09657029744808
C           -1.57332329615184        1.54874426129582       -1.40674268058975
C           -1.20005316814728       -1.85454699340550       -1.16911791237474
C           -0.47790513646359       -2.64876734294391       -2.04895802594984
C           -1.19507274884791       -3.49290744700915       -3.05768736817057
H            2.79119476264585       -3.37650742490576       -2.72926967906652
H            1.52651086006014       -3.21752082448372       -3.95520944570708
H            1.46908902160140       -4.54774216167317       -2.80557700915734
H            2.64503800610665       -1.87732145859768       -0.98240731121794
H            2.91826731147079       -2.40748254868162        1.65731349768419
H            5.30706460924187       -3.02884632482420        1.69956364727768
H            7.02806397087089       -1.33621858484846        1.17409001694235
H            6.35262613706568        0.97347293485873        0.62967907835282
H            3.97414061716710        1.59005351896719        0.57843397382532
H            2.08437102835716        0.83673016542946       -1.60827035145239
H            1.94034270922572        3.02510303602159       -2.73141811555158
H            1.19530639617717        5.01332706940638       -1.47726293695731
H            0.59802049155455        4.81432749557042        0.90849958887884
H            0.73883995185990        2.61663144935099        2.03250335458198
H           -4.25560335341226        0.67988255348906        0.31554642396071
H           -6.31684689506967       -0.61141823128478        0.65435549364757
H           -6.22669559047644       -2.86173230193525        1.66076095170444
H           -4.05316165507658       -3.81563172409903        2.34722370604023
H           -1.98128293808392       -2.51309242199142        2.01907157688752
H           -2.58525373208688        2.45847570407973        1.68480043715301
H           -3.23130318678523        4.49517909235606        0.44733482858692
H           -2.80017263287019        4.64617701365557       -1.98021520876278
H           -1.73147477444530        2.76138097401680       -3.15760971981115
H           -1.10064946316000        0.72946112500876       -1.92986167715905
H           -2.28147572880087       -1.85047264262243       -1.21628206028745
H           -2.27140610981496       -3.37079517929607       -2.96456178074061
H           -0.95110845048617       -4.54558580196224       -2.91777099697902
H           -0.89923317127671       -3.21672765804554       -4.06954206648474
