  62
        -87.79884609
 C          1.7097379404       -3.4979789195       -2.9078278591
 C          0.9123361347       -2.6532828032       -1.9616621061
 C          1.5630685834       -1.8716316942       -1.0167815097
 C          0.8451765035       -1.0882457160       -0.1270358296
 P          1.5024200786       -0.0180412181        1.2013951393
 C          3.2971289218       -0.3741550056        1.0646915554
 C          3.7051323491       -1.6729317122        1.3657999469
 C          5.0448465270       -2.0086198261        1.3604696085
 C          5.9983112203       -1.0424814272        1.0793528088
 C          5.6032452981        0.2577316645        0.8144590072
 C          4.2608630847        0.5950486489        0.8130726119
 C          1.4120104097        1.5797273039        0.3054729022
 C          1.7707553944        1.7036715515       -1.0321317526
 C          1.6541277701        2.9251944594       -1.6677210236
 C          1.1780931635        4.0283147891       -0.9768889798
 C          0.8236401395        3.9107549250        0.3557207526
 C          0.9392781594        2.6893725749        0.9944431366
 C         -0.5491957064       -1.0825623608       -0.1890015676
 P         -1.3477605153        0.0107376187        1.0306984597
 C         -2.9756729657       -0.8330873089        1.1412481213
 C         -4.1894457631       -0.2931951170        0.7352400948
 C         -5.3581679898       -1.0175082425        0.8978798120
 C         -5.3287714644       -2.2777472135        1.4699615879
 C         -4.1222188293       -2.8167057519        1.8892876227
 C         -2.9554736545       -2.0949992081        1.7329438390
 C         -1.7922906494        1.4450586184       -0.0171388666
 C         -2.3867112012        2.5227534443        0.6354501204
 C         -2.7222353035        3.6668167507       -0.0615846718
 C         -2.4511963138        3.7523267759       -1.4177747303
 C         -1.8493655574        2.6895890517       -2.0687529608
 C         -1.5199747380        1.5384946608       -1.3751136600
 C         -1.2029153438       -1.8595801704       -1.1324690178
 C         -0.4865954347       -2.6494720399       -2.0200907877
 C         -1.2103142174       -3.4882329917       -3.0286791858
 H          2.7748889198       -3.3812684903       -2.7236213065
 H          1.5027262627       -3.2197751107       -3.9410482769
 H          1.4507134397       -4.5500697775       -2.7913356368
 H          2.6439196010       -1.8840265782       -0.9765508786
 H          2.9554247867       -2.4194228705        1.5959816842
 H          5.3493863838       -3.0219219363        1.5805946089
 H          7.0469147090       -1.3017058025        1.0760256152
 H          6.3455825651        1.0159315024        0.6091586787
 H          3.9614504137        1.6138369533        0.6118280461
 H          2.1392043163        0.8415415956       -1.5716479859
 H          1.9319952546        3.0189728917       -2.7081028431
 H          1.0824456669        4.9794630669       -1.4798977147
 H          0.4507700306        4.7696953578        0.8943783358
 H          0.6579761214        2.5830119364        2.0332614852
 H         -4.2235843164        0.6876837904        0.2838097696
 H         -6.2976849147       -0.5947920185        0.5717416598
 H         -6.2438616725       -2.8386724623        1.5913891115
 H         -4.0952339795       -3.7975494482        2.3416061374
 H         -2.0088374262       -2.5050965949        2.0613974277
 H         -2.5818401292        2.4514842357        1.6978345041
 H         -3.1885809208        4.4958777682        0.4511672531
 H         -2.7059881264        4.6479577797       -1.9651848136
 H         -1.6333494865        2.7563508916       -3.1255346791
 H         -1.0466534611        0.7158351994       -1.8917370218
 H         -2.2840795774       -1.8540594489       -1.1744214042
 H         -2.2854356561       -3.3566728195       -2.9362799684
 H         -0.9770052745       -4.5432716747       -2.8877429987
 H         -0.9125014322       -3.2169050786       -4.0413060503
