  93
       -143.07254211
 C          8.1955953302        0.1758184027       -1.7825337410
 C          7.6144125515       -0.1789764657       -0.4006618707
 C          8.6916078229       -0.0136462292        0.6880347152
 C          6.4725950185        0.7654154845       -0.0896497794
 C          6.7084935058        2.1326000916       -0.0438978470
 C          5.7121862597        3.0387154644        0.2692623500
 C          4.4425813862        2.5749431688        0.5740476999
 C          4.1805672323        1.2242779866        0.5382182683
 C          5.1764828803        0.3025308048        0.1833299088
 N          4.8751425333       -1.0448525071        0.1238648317
 C          3.5332041448       -1.4513191152        0.3571037520
 C          3.1853034597       -2.1722687793        1.5028395627
 C          1.8730597758       -2.5007516051        1.7424020910
 C          0.8570979135       -2.0684340941        0.8701161988
 C         -0.5406997415       -2.3471316816        1.1653522552
 O         -0.8867267560       -3.3733527029        1.8000872248
 C         -1.5096698913       -1.3659248708        0.6969519524
 C         -2.8378413496       -1.7419630586        0.4395136355
 C         -3.7607852484       -0.8007923388        0.0185800964
 N         -5.0696470264       -1.2056136946       -0.2815078219
 C         -5.7513446812       -0.9348014006       -1.4480594514
 C         -5.3303955935       -0.2496472833       -2.5800261077
 C         -6.2194746479       -0.1343361717       -3.6319796732
 C         -7.4940158783       -0.6921129999       -3.5708952336
 C         -7.9106448367       -1.3960040471       -2.4558863820
 C         -7.0362871655       -1.5250635783       -1.3873586807
 C         -7.1197922592       -2.1861632153       -0.1129050779
 C         -8.1148112461       -2.9143402272        0.5220909480
 C         -7.8647909977       -3.4099153004        1.7885648940
 C         -6.6476739582       -3.1754890557        2.4239951460
 C         -5.6416859770       -2.4509598569        1.8130153527
 C         -5.8798074036       -1.9690625816        0.5327281645
 C         -3.3994700061        0.5390516983       -0.1447001362
 C         -2.0960113032        0.9288664817        0.1726974773
 N         -1.7348893089        2.2846706594        0.1384889815
 C         -0.5524376254        2.7928250984       -0.3598399844
 C          0.4684196739        2.1528143868       -1.0501348441
 C          1.5561399059        2.9069721631       -1.4462437065
 C          1.6281550542        4.2728811183       -1.1836638811
 C          0.6003717118        4.9243707143       -0.5288165217
 C         -0.4983531420        4.1851228413       -0.1144492871
 C         -1.7127650021        4.5236450226        0.5746908241
 C         -2.2191794870        5.7114681166        1.0820090116
 C         -3.4351827411        5.6855936029        1.7375840904
 C         -4.1315520106        4.4912270376        1.9049550910
 C         -3.6475090972        3.2962714063        1.4071360416
 C         -2.4413061852        3.3194161009        0.7198399923
 C         -1.1679927564       -0.0053520231        0.5959134987
 C          1.2327246074       -1.4208633780       -0.3213286369
 C          2.5457424254       -1.1147234432       -0.5730607852
 C          5.8280581848       -1.9906922753       -0.1946691778
 C          5.4552576332       -3.3378403796       -0.3076052373
 C          6.3877404828       -4.3077782771       -0.5972711620
 C          7.7142365319       -3.9549092876       -0.7895225090
 C          8.0808172841       -2.6239967169       -0.7129000728
 C          7.1620792229       -1.6235630529       -0.4277301879
 H          7.4334374824        0.0482063766       -2.5488124899
 H          8.5377505978        1.2064158283       -1.8068270717
 H          9.0367757964       -0.4667590671       -2.0254475585
 H          8.2736272757       -0.2587939849        1.6624831325
 H          9.5352254653       -0.6716139717        0.5006416585
 H          9.0564861324        1.0091343664        0.7189318577
 H          7.6979279325        2.5076701972       -0.2559191391
 H          5.9287887958        4.0956913011        0.2888499320
 H          3.6548794321        3.2632706675        0.8392866622
 H          3.1938343965        0.8718104730        0.7900344442
 H          3.9584868467       -2.4531108387        2.2035838972
 H          1.5906912008       -3.0537124422        2.6247131742
 H         -3.1122594740       -2.7812679085        0.5284174301
 H         -4.3373040905        0.1679253081       -2.6440320292
 H         -5.9171340238        0.3961159837       -4.5227381085
 H         -8.1602640708       -0.5796199886       -4.4131678767
 H         -8.8932756315       -1.8410618964       -2.4163093373
 H         -9.0634803644       -3.0856245375        0.0361177558
 H         -8.6251609133       -3.9820433007        2.2988811564
 H         -6.4863365524       -3.5668533019        3.4171628698
 H         -4.7050636210       -2.2667572037        2.3156972872
 H         -4.1221374893        1.2620910074       -0.4857534146
 H          0.4163579694        1.1007203867       -1.2768229648
 H          2.3694328111        2.4277860901       -1.9708969289
 H          2.4970604012        4.8267928127       -1.5067201420
 H          0.6468907032        5.9864373647       -0.3406443841
 H         -1.6687874697        6.6332566778        0.9686829979
 H         -3.8490160767        6.5991919926        2.1374937137
 H         -5.0696428962        4.4973318268        2.4398374399
 H         -4.1856601908        2.3748525695        1.5662348733
 H         -0.1922683768        0.3276591547        0.9141236107
 H          0.4761365628       -1.1910112790       -1.0571758723
 H          2.8317827899       -0.6152123457       -1.4880130234
 H          4.4217500112       -3.6136848566       -0.1723903342
 H          6.0796730170       -5.3390180445       -0.6762106883
 H          8.4548985016       -4.7078873579       -1.0104833323
 H          9.1140174331       -2.3632760848       -0.8845706834
