72
 energy: -113.915154130601 gnorm: 0.000068293185 xtb: 6.7.1 (edcfbbe)
C           -7.66791857798482       -2.81223611749435        1.03187364701570
C           -8.18246591504806       -1.91342349840766       -0.09155597371980
N           -7.54209403984123       -0.61181717411993       -0.05116812989769
C           -8.30886760287689        0.55022203791611       -0.12982728689032
C           -9.51951098481516        0.57988513335560       -0.82377392678554
C          -10.28529460944797        1.73127053247917       -0.87603164372196
C           -9.84984184019721        2.89348004651850       -0.26453686215573
C           -8.63247268322494        2.89646204696037        0.39426179793975
C           -7.87783345239404        1.73860985484533        0.46683294780599
S           -6.35550888504428        1.77569413246851        1.37969676008811
C           -5.46830691381854        0.54769171010053        0.45231616950345
C           -4.09457491338063        0.64957014281817        0.37911454095953
C           -3.33584307436095       -0.33542427349617       -0.25519479425329
C           -1.87801641733427       -0.24425767782635       -0.28362513547769
C           -1.21287878097841        0.96363988272559       -0.34927316418075
C            0.18266427142778        1.06805038799972       -0.33916263155706
C            1.02053032337149       -0.02682680296317       -0.25870679324055
C            2.47489653160344        0.10238214927291       -0.20908757006477
C            3.07238755516512        1.19529743993344        0.42440759072478
C            4.44227742695598        1.31694244504626        0.49685920437598
C            5.27303624363269        0.34986500294551       -0.07467137708188
N            6.65993080183000        0.46305100181705        0.00575707932721
C            7.45376747839254       -0.68478928904505        0.14327932263649
C            8.68145208065383       -0.77521265043271       -0.51212431537896
C            9.46592417537115       -1.90359700166095       -0.36735873245876
C            9.03885878370350       -2.95889697540265        0.42255415031541
C            7.81823639922257       -2.87510247081192        1.07315048479633
C            7.03071099971650       -1.74742405990447        0.94155297877573
C            7.26963789414843        1.72487612623175       -0.02899933824323
C            6.78790623560931        2.72041680728392       -0.87887887022216
C            7.39203167994417        3.96279160715909       -0.90777109411407
C            8.48672183863022        4.23011381666615       -0.10131113890410
C            8.97234025641267        3.24270274103543        0.74088476852427
C            8.36992594743369        1.99988401088531        0.78275267626787
C            4.68083709982645       -0.73810827705701       -0.72094645432917
C            3.31038219010928       -0.86037956373028       -0.77921430873851
C            0.38036693324082       -1.29091176925684       -0.20501133511109
N            0.96505253744657       -2.48497257625788       -0.10209316579713
S           -0.17050360963314       -3.62211335240799       -0.03244670215527
N           -1.46203259164542       -2.66687213283030       -0.12785331596648
C           -1.05881928323184       -1.39892013997047       -0.21953217514613
C           -4.01601940475077       -1.40236897471535       -0.83982088227224
C           -5.39199398473137       -1.48576653440082       -0.79004071726788
C           -6.15739726771368       -0.52245176372358       -0.12824871956072
H           -7.82250783499622       -2.32824916320660        1.99383424332355
H           -8.21351100255419       -3.75214606659091        1.02251785122137
H           -6.60762912603703       -3.02232336676289        0.92105531522513
H           -9.25055535179448       -1.75605526600245        0.06223185691781
H           -8.04554717707655       -2.40043278036035       -1.06491077598892
H           -9.86587860792661       -0.30378454466388       -1.33638028586733
H          -11.22471610077391        1.71709485238318       -1.40814721214968
H          -10.44508378442744        3.79253836278559       -0.30224215605888
H           -8.26489606672956        3.78965269916256        0.87680814726334
H           -3.61204989746027        1.47833623227561        0.87489392278926
H           -1.78965792279184        1.87304742433482       -0.43021670434398
H            0.61727015314989        2.05359461157696       -0.41578013421157
H            2.45399723949674        1.94013190015703        0.90318424233118
H            4.88233012320912        2.15782367452416        1.01291823124383
H            9.01286194583324        0.04318450612432       -1.13473774050915
H           10.41399696613571       -1.96178262260467       -0.88202107392704
H            9.65283115469813       -3.84040448039998        0.53065341261075
H            7.47932353510468       -3.69021379202113        1.69593428081404
H            6.08396608892078       -1.68035986433176        1.45767443689723
H            5.94083291244027        2.51048256356268       -1.51576600261506
H            7.01048718569599        4.72459838195498       -1.57206919438506
H            8.95809497828148        5.20106564197073       -0.12904824006990
H            9.82220989002871        3.44364475863021        1.37687417419485
H            8.74491658688573        1.23410226223189        1.44609947051115
H            5.30787397382715       -1.48784097526310       -1.18070307254992
H            2.87292751807355       -1.70656617124528       -1.28487247017947
H           -3.45673954496085       -2.17237099792579       -1.34656196316335
H           -5.87900616202316       -2.31529415971081       -1.27626735528589
