  72
       -113.81301160
 C         -8.4061874677       -2.7108222359        0.6676616821
 C         -8.1127291393       -1.8782195974       -0.5825801056
 N         -7.5244317641       -0.5796591666       -0.3082241589
 C         -8.3711937324        0.5005063901       -0.0919350208
 C         -9.7304793791        0.3093757838        0.1920650936
 C        -10.5899406972        1.3703494005        0.3987567609
 C        -10.1284992036        2.6745479941        0.3417102449
 C         -8.7936476890        2.8934365447        0.0665108335
 C         -7.9290256504        1.8307594004       -0.1536084657
 S         -6.2773630748        2.2592013771       -0.5869514412
 C         -5.4446002757        0.7288400768       -0.2924281838
 C         -4.0750017741        0.8020260621       -0.2086417340
 C         -3.2698773187       -0.3429959110       -0.0503495988
 C         -1.8439646214       -0.2859477884        0.0197025652
 C         -1.1381337225        0.9483400155       -0.0714124378
 C          0.2206590128        1.0435809270       -0.0620256536
 C          1.0837970752       -0.0778849865        0.0662876373
 C          2.5095861478        0.0651663616        0.0473727043
 C          3.1346276975        1.2107752056       -0.4900407186
 C          4.4991691120        1.3432451388       -0.5134022449
 C          5.3270107381        0.3393192246        0.0064410976
 N          6.7100370913        0.4703209619       -0.0197197200
 C          7.3031645424        1.7303273236        0.1098821755
 C          8.4422609387        2.0534597538       -0.6286372895
 C          9.0248000079        3.2986743383       -0.4971209166
 C          8.4830197607        4.2395622714        0.3640519110
 C          7.3519979799        3.9234691635        1.0997861472
 C          6.7646887356        2.6793790676        0.9798558573
 C          7.5191499688       -0.6604420115       -0.1802702836
 C          8.7235592667       -0.7704623908        0.5153419618
 C          9.5180610007       -1.8886653808        0.3542007300
 C          9.1257832346       -2.9117457106       -0.4941737480
 C          7.9306088113       -2.8064434322       -1.1876909187
 C          7.1313822247       -1.6903095175       -1.0381820174
 C          4.7220661713       -0.8050855240        0.5445686591
 C          3.3586480036       -0.9376966379        0.5598474492
 C          0.4270017168       -1.3278959495        0.2140406283
 N          1.0190752810       -2.5088730883        0.3556464255
 S         -0.1220462346       -3.6783144187        0.4450498366
 N         -1.4245845957       -2.6946515519        0.2929186511
 C         -1.0170109591       -1.4361673842        0.1748275281
 C         -3.9743968862       -1.5657844711        0.0208148352
 C         -5.3399540549       -1.6325448974       -0.0622466426
 C         -6.1446242039       -0.4899807009       -0.2203999665
 H         -7.4987606150       -2.9027568284        1.2335597422
 H         -9.1031286427       -2.2027139943        1.3286157803
 H         -8.8388795785       -3.6632647926        0.3721283109
 H         -9.0337355739       -1.7168908356       -1.1485462299
 H         -7.4282547114       -2.4230006460       -1.2370683395
 H        -10.1389968324       -0.6835477128        0.2615632316
 H        -11.6287190175        1.1698132698        0.6117474412
 H        -10.7947361837        3.5059548353        0.5061335684
 H         -8.3974559509        3.8953749906        0.0035128635
 H         -3.6386022648        1.7837146476       -0.2881194472
 H         -1.7019758178        1.8628344011       -0.1528610147
 H          0.6616283174        2.0265236138       -0.1174933491
 H          2.5379307784        1.9869012093       -0.9425666138
 H          4.9482589745        2.2180435670       -0.9611855857
 H          8.8580431157        1.3244567530       -1.3087240569
 H          9.9029544658        3.5387665709       -1.0777341508
 H          8.9393086982        5.2125696731        0.4614167706
 H          6.9280041133        4.6481451478        1.7788366121
 H          5.8912082364        2.4275940946        1.5629317024
 H          9.0231610467        0.0209706294        1.1866943235
 H         10.4452536259       -1.9655947996        0.9021433159
 H          9.7475194392       -3.7854894767       -0.6142855802
 H          7.6204621856       -3.5959928753       -1.8556318437
 H          6.2050308798       -1.6033137254       -1.5860403694
 H          5.3434949639       -1.5806819954        0.9671583774
 H          2.9086136539       -1.8198041188        0.9823252097
 H         -3.4040471855       -2.4703250278        0.1482618042
 H         -5.7890950378       -2.6070892642        0.0121632781
