72
 energy: -113.863967036275 gnorm: 0.000066312112 xtb: 6.7.1 (edcfbbe)
C           -7.74752240188615       -2.70665933654564        1.07850395230495
C           -8.19636871083485       -1.87678531265816       -0.12380086262896
N           -7.54480214351535       -0.57803919065807       -0.13503320975231
C           -8.30976088910682        0.58182666752563       -0.18441568944649
C           -9.53787051027038        0.60627954079470       -0.85491408334362
C          -10.31311417828596        1.74844625454309       -0.88695831341264
C           -9.88075173221699        2.91035154819086       -0.26593507016904
C           -8.65268674440124        2.92149170196631        0.36696083824192
C           -7.87323527669501        1.77461242698390        0.40605022953152
S           -6.33211573036917        1.85061549145978        1.26800324770658
C           -5.46111951335401        0.56918382711240        0.41080098261439
C           -4.08804262087227        0.63510714592322        0.39006190588279
C           -3.30716520651929       -0.38523757884870       -0.18458383768629
C           -1.87543794480051       -0.31985733966333       -0.21385613541297
C           -1.18225732610574        0.90361525016729       -0.00959816018921
C            0.17815565252987        1.00188322751452        0.00320873831873
C            1.04442670178216       -0.10739312109390       -0.18718247320252
C            2.47230439290321        0.03803490735238       -0.13428092585068
C            3.08262443151382        1.14441082000832        0.49462941669944
C            4.44587126319841        1.28363982321926        0.54825110465242
C            5.28976127378371        0.32258025018121       -0.02545782028443
N            6.67036729188318        0.46073812106349        0.03211828599937
C            7.48883172579457       -0.67130215027141        0.14116509826310
C            8.70356057494024       -0.73167233087133       -0.54288201948784
C            9.51007904354289       -1.84735244015220       -0.42692266367061
C            9.11973193830804       -2.91620714856193        0.36462785374076
C            7.91335854694483       -2.86077782368639        1.04514947022732
C            7.10165784059797       -1.74789932193720        0.94033065637818
C            7.25570228780469        1.73264646534119       -0.01577083923705
C            6.73362946078541        2.71914731597248       -0.85353814654542
C            7.31454097137514        3.97184016149279       -0.89596188372736
C            8.42219974376459        4.25855243569533       -0.11343145333588
C            8.94672954695708        3.28036069184452        0.71691473393795
C            8.37072997494141        2.02582538263706        0.77044137285048
C            4.69985075886448       -0.78425009122438       -0.65234433706957
C            3.33670333172635       -0.91993965532090       -0.70308822686797
C            0.39477556796785       -1.34454136000221       -0.43581858500540
N            0.99173834618877       -2.51663355423405       -0.63221538011882
S           -0.15592705589224       -3.67672173342228       -0.83209213489633
N           -1.46524410360952       -2.69555268977800       -0.65855161112913
C           -1.04880162221209       -1.45011675806879       -0.45045655376140
C           -4.01726914540854       -1.47320386103945       -0.73749707387491
C           -5.38603546700197       -1.53288235167116       -0.71877255512850
C           -6.16449155800615       -0.51488969427816       -0.14347548699335
H           -7.95952329375669       -2.17104726719718        2.00145504247318
H           -8.29214263171134       -3.64692100770275        1.08957063716322
H           -6.68294873938805       -2.92116384053221        1.04213528293785
H           -9.26961526105574       -1.71076039968632       -0.03813316100013
H           -8.00518824644665       -2.41861264224465       -1.05597593024615
H           -9.87964917963216       -0.27227290289243       -1.37842258594481
H          -11.25748518497093        1.73207064679296       -1.40918857514311
H          -10.48676075007122        3.80232600615285       -0.28505413467835
H           -8.28351867964726        3.81489554798727        0.84689797155838
H           -3.61995625703041        1.47567299910245        0.87749073481113
H           -1.75796007870326        1.80948534661671        0.10216195109563
H            0.61552839889416        1.98109410751428        0.12407248455366
H            2.47327167790313        1.88339149259324        0.99124765274729
H            4.88030069439348        2.12896734562113        1.06244104277816
H            9.00284684230679        0.09591753825908       -1.16909597258594
H           10.44586009748459       -1.88549429134552       -0.96470240363958
H            9.75119674108484       -3.78745713061113        0.45063306603126
H            7.60437561022395       -3.68640096827188        1.66904590376761
H            6.16719891912142       -1.70002074255899        1.48009423107633
H            5.87877466737347        2.49073274609161       -1.47311272140569
H            6.90467006269637        4.72615123396922       -1.55135064553324
H            8.87408220467557        5.23815902972496       -0.15113858007759
H            9.80638755185311        3.49786202242108        1.33342150473113
H            8.77284976515625        1.26730229013868        1.42573120900059
H            5.33090923211517       -1.52716827652770       -1.11820545165336
H            2.90193616450266       -1.77174773562558       -1.20014396825513
H           -3.45401549237085       -2.27074650429091       -1.19351427921331
H           -5.87088654946866       -2.37507575510314       -1.18482614150816
