  51
        -78.94716905
 C         -4.7081817010        0.8848794660       -2.5092850194
 C         -3.5352729351        0.5196507262       -3.1537916146
 C         -2.4020954950        0.1779939757       -2.4285133542
 C         -2.4683571971        0.2110315268       -1.0524239239
 C         -3.6525089428        0.5793711264       -0.3956910159
 C         -4.7797930968        0.9182076023       -1.1259738430
 C         -3.4206167403        0.5215675838        1.0384475501
 C         -4.2554075966        0.7875219548        2.1114873119
 C         -3.7527464393        0.6424839924        3.3944414709
 C         -2.4419611435        0.2406415568        3.6054178130
 C         -1.5990252255       -0.0264642262        2.5352918313
 C         -2.0960746520        0.1158259225        1.2583846262
 C         -1.3857664159       -0.1148236259       -0.0563039060
 C         -0.8341626811       -1.5115657233       -0.1914368468
 C         -1.5217337785       -2.6887694743       -0.2227693869
 C         -0.8100624489       -3.8857948086       -0.3740700347
 C          0.5814902618       -3.8635931263       -0.5309281168
 C          1.2902141013       -2.6913695896       -0.5047294947
 C          0.6013892763       -1.4679599558       -0.2878908311
 C          1.0317878834       -0.1468142527       -0.1871935613
 C         -0.1378947806        0.7218424447       -0.1893171991
 C         -0.0673337379        2.0620632717       -0.3699233340
 C          1.2034076032        2.6887194861       -0.5125164928
 C          2.3348376079        1.8984155357       -0.4065296798
 N          3.6450280672        2.3191311882       -0.4216226568
 C          4.4672464210        1.2685290774       -0.1497769364
 C          5.8457277932        1.2374038678       -0.0339827425
 C          6.4377216986        0.0348486914        0.3071460962
 C          5.6558583915       -1.1038556140        0.5542202589
 C          4.2876850683       -1.0879217259        0.4367589654
 C          3.6503452422        0.1007388410        0.0394848249
 C          2.3144250318        0.5007179403       -0.1743169373
 H         -5.5771011363        1.1467005007       -3.0952958239
 H         -3.5037315591        0.5020588407       -4.2333701755
 H         -1.4876192826       -0.1063803110       -2.9289206859
 H         -5.6952236125        1.2035072940       -0.6291475827
 H         -5.2769442515        1.1002930015        1.9528108071
 H         -4.3898136426        0.8447381496        4.2433420620
 H         -2.0729189650        0.1342942185        4.6151114585
 H         -0.5775872427       -0.3391270981        2.6984386833
 H         -2.5991979534       -2.7010953104       -0.1381035070
 H         -1.3382902864       -4.8261460020       -0.3949183439
 H          1.1016842911       -4.7975579336       -0.6916576175
 H          2.3522823531       -2.6851578284       -0.6852935028
 H         -0.9623352096        2.6646797580       -0.4063001734
 H          1.2752252431        3.7557477866       -0.6494470539
 H          3.9444021417        3.2644218983       -0.5933240507
 H          6.4355011812        2.1286282515       -0.1910307779
 H          7.5102443045       -0.0258810531        0.4089661671
 H          6.1520975801       -2.0155294989        0.8544749095
 H          3.7094777649       -1.9656804360        0.6736301889
