51
 energy: -78.951736119316 gnorm: 0.000039828235 xtb: 6.7.1 (edcfbbe)
C           -4.70252399784792        0.86990309468847       -2.51557318745575
C           -3.52370096918569        0.51437786227981       -3.15458777291361
C           -2.39128615915105        0.18173412941593       -2.42391256212328
C           -2.46448344780621        0.21385934564900       -1.04824839944076
C           -3.65408973217467        0.57340574933561       -0.39704406461319
C           -4.78061057150375        0.90322640146711       -1.13256564222016
C           -3.42795263668156        0.51787120723363        1.03825475265026
C           -4.26901708781485        0.78063827584279        2.10707929928996
C           -3.77065926605461        0.64223913467504        3.39251941535182
C           -2.45822570466214        0.24943706139038        3.60971407180157
C           -1.60939891246868       -0.01546665819527        2.54358598129773
C           -2.10194543074173        0.12059255575036        1.26427091082998
C           -1.38509951954121       -0.10863747535263       -0.04703525662715
C           -0.83336093218083       -1.50598260503235       -0.18423016030557
C           -1.52204495894099       -2.68186209812953       -0.21611876498801
C           -0.81224380342991       -3.88015660019163       -0.37332105787827
C            0.57871555826993       -3.85893432782857       -0.53544817173601
C            1.28851393356208       -2.68759207206225       -0.50822450795408
C            0.60191112050885       -1.46352741358876       -0.28552247532002
C            1.03476133346084       -0.14493612924647       -0.18141105338339
C           -0.13725671840301        0.72787459963135       -0.17820976236479
C           -0.06506238799056        2.06702814196498       -0.35662753502306
C            1.20606360136951        2.69368106532731       -0.50015879897685
C            2.34065275803066        1.89813217520068       -0.39625904943322
N            3.64837537198406        2.31963519245657       -0.41112639507244
C            4.47179202424257        1.26637464344035       -0.14884561154988
C            5.85123246792203        1.23385106191798       -0.03861706367865
C            6.44339761255890        0.02965308535474        0.29203586694574
C            5.66259242590977       -1.10982559413116        0.53454748379922
C            4.29372389372095       -1.09134841368037        0.42224486353284
C            3.65673114488681        0.09956753997560        0.03648166617116
C            2.31847286501932        0.50312937732118       -0.16943755502683
H           -5.57135085433386        1.12388347158135       -3.10557204555586
H           -3.48735207027364        0.49560388400614       -4.23403883553233
H           -1.47280869792787       -0.09662480971086       -2.92003900685610
H           -5.70097875966307        1.18030332171195       -0.63995314279061
H           -5.29176374086693        1.08678952410430        1.94342606341206
H           -4.41250458174968        0.84269041609608        4.23827085928416
H           -2.09252148437306        0.14793195567361        4.62105054203171
H           -0.58715114686492       -0.32188524149601        2.71173676247433
H           -2.59910811901912       -2.69359202410861       -0.12734381014241
H           -1.34188061453627       -4.81975419220743       -0.39465009280357
H            1.09731978190861       -4.79287135262155       -0.70132939991732
H            2.34985594513504       -2.68171017716668       -0.69310844658159
H           -0.95931950434359        2.67110281014262       -0.38985806806041
H            1.28030546820123        3.76087335550310       -0.63357163469119
H            3.94762328686687        3.26552904545124       -0.58034984759480
H            6.44085629178958        2.12575622693352       -0.19268502425951
H            7.51635506858737       -0.03248977480334        0.38901664749360
H            6.15884581653487       -2.02381553626086        0.82742580754789
H            3.71591297995075       -1.97048594757832        0.65543234024005
