  45
  -74.8508995400000       0.576282879107713      !
 C         -3.6385261936        1.3208477968       -1.1292843023
 C         -4.4201305508        0.3958563833       -0.4125933718
 C         -3.8717741053       -0.8060495235        0.0132131899
 C         -2.5603007857       -1.1410501448       -0.2533717299
 C         -1.9341667915       -2.3812998868        0.0876194093
 C         -2.6244094824       -3.5509759084        0.4163512405
 C         -1.9251388494       -4.7241484329        0.6277692671
 C         -0.5400852663       -4.7056510704        0.4725873659
 N          0.1469303844       -3.6174069719        0.2076842405
 C         -0.5066735376       -2.4606815577        0.0468847537
 C          0.2806783409       -1.2694167864       -0.0914043326
 C          1.6569619561       -1.2866316335       -0.0282765122
 C          2.3942948295       -0.1006617591       -0.0815056897
 C          3.8306847280       -0.0902577446       -0.0750238339
 C          4.7392762194       -1.1422916779       -0.0983843600
 N          5.9465755059       -0.5336521395       -0.0842026299
 N          5.7994302759        0.7894150611       -0.0546070168
 N          4.5583013950        1.0617287797       -0.0500885829
 C          1.6707104353        1.1112347189       -0.0461078415
 C          0.3022257447        1.1194290673       -0.0755049896
 C         -0.4261558352        2.3440729646        0.2259025506
 C         -1.6012028501        2.3062159249        0.9899959881
 C         -2.2380122565        3.4959569973        1.2841255170
 C         -1.6950164605        4.6842102737        0.8152047929
 C         -0.5118088574        4.6184851952        0.0916705471
 N          0.1066063368        3.4920809107       -0.1959625827
 N         -0.3993530073       -0.0603252707       -0.2395253690
 C         -1.6646685837       -0.1812630335       -0.9919623540
 C         -2.3246125890        1.0947184350       -1.3742427621
 H         -4.0925281606        2.2415554158       -1.4649902665
 H         -5.4508872994        0.6246553808       -0.1940040708
 H         -4.4884461680       -1.4916826159        0.5756260637
 H         -3.7031906276       -3.5459609193        0.4671225502
 H         -2.4372236062       -5.6406113171        0.8748679030
 H          0.0432241557       -5.6120813230        0.5725838505
 H          2.1317994893       -2.2478979582        0.0788919683
 H          4.6230571285       -2.2039069156       -0.1237666901
 H          6.8613717799       -0.9570807458       -0.0934239370
 H          2.1987385040        2.0436302887        0.0652824885
 H         -1.9730268321        1.3673601443        1.3709038506
 H         -3.1426293584        3.4991098515        1.8749357686
 H         -2.1669640032        5.6329302435        1.0163964972
 H         -0.0342881145        5.5157746006       -0.2808434947
 H         -1.3657850834       -0.6751964708       -1.9436518394
 H         -1.7302196068        1.7999697649       -1.9345418491
  45
  -74.8506089200000       0.423717120892287      !
 C         -3.6367445152        1.2949634169       -1.2117908326
 C         -4.4232390025        0.3578766966       -0.5152987434
 C         -3.8648822084       -0.8282378039       -0.0606430949
 C         -2.5391123370       -1.1408313843       -0.2837545344
 C         -1.8980007656       -2.3625781758        0.0930278899
 C         -2.5762086958       -3.5360654786        0.4385625178
 C         -1.8636960370       -4.6925794975        0.6876807855
 C         -0.4760380734       -4.6580500269        0.5495714162
 N          0.1962230522       -3.5652310220        0.2706727259
 C         -0.4691561290       -2.4232545568        0.0765473018
 C          0.3066859516       -1.2231388797       -0.0724615708
 C          1.6804780212       -1.2152542933       -0.0133337119
 C          2.3958633686       -0.0121435069       -0.0781275627
 C          3.8321980509       -0.0111353689       -0.0958497753
 C          4.7313638465        1.0479584748       -0.1585382371
 N          5.9440198771        0.4493259194       -0.1584066167
 N          5.8081194993       -0.8743495843       -0.1024790812
 N          4.5700210166       -1.1564951374       -0.0665552225
 C          1.6511233281        1.1826261345       -0.0341836194
 C          0.2799300639        1.1655711622       -0.0593413535
 C         -0.4680181378        2.3716495749        0.2540957104
 C         -1.6708982987        2.3018325450        0.9732864055
 C         -2.3279669817        3.4759929077        1.2815236289
 C         -1.7793908752        4.6835590211        0.8699273457
 C         -0.5694908726        4.6499222686        0.1903552439
 N          0.0716149596        3.5390999465       -0.1095704722
 N         -0.3962766670       -0.0270553339       -0.2313512627
 C         -1.6426645100       -0.1722738332       -1.0097852727
 C         -2.3121948508        1.0920903268       -1.4139483964
 H         -4.0970108862        2.2060599739       -1.5648118589
 H         -5.4649416804        0.5676599761       -0.3323189820
 H         -4.4854522970       -1.5195506175        0.4902332482
 H         -3.6557629409       -3.5460005876        0.4731374571
 H         -2.3666029875       -5.6099789518        0.9498524985
 H          0.1198539984       -5.5525622768        0.6763673636
 H          2.2018159365       -2.1520316685        0.0916261245
 H          4.6065030788        2.1080566689       -0.2022030992
 H          6.8550436023        0.8795055320       -0.1949606853
 H          2.1337342345        2.1385063989        0.0874963486
 H         -2.0445783266        1.3492022068        1.3150431064
 H         -3.2528555692        3.4532485217        1.8400310159
 H         -2.2663971572        5.6219676794        1.0830218825
 H         -0.0876804820        5.5634828303       -0.1348196811
 H         -1.3162521281       -0.6675423879       -1.9518645478
 H         -1.7121894623        1.8075467086       -1.9554622026
