66
 energy: -98.891609592521 gnorm: 0.000047732016 xtb: 6.7.1 (edcfbbe)
C           -3.47728276153638       -4.04492777890036       -0.02685970806233
C           -2.76198901067853       -3.70925550627967        1.11065232357037
C           -1.99439362200066       -2.55923033678010        1.13549405705112
C           -1.93825825375725       -1.72675263776639        0.02282727196536
C           -1.13712218529473       -0.47951909546656        0.04407477991669
C           -1.80168074920022        0.73799999899021       -0.03235151188486
C           -3.25949663873279        0.79075028335389       -0.20255496781046
C           -3.81116623986681        1.46853915991925       -1.29092534272501
C           -5.17987273282548        1.50680865241069       -1.47684931885801
C           -6.02404433015606        0.88208876370286       -0.57250910570025
C           -5.48806044359714        0.22003024549104        0.52024081788703
C           -4.11921098899425        0.17128500449049        0.70365900864821
C           -1.06202957839725        1.96799575196152        0.12156124096457
C           -1.70576142277660        3.19757754140538        0.26540506036640
C           -0.98713755242393        4.37442034209980        0.41882324373319
C            0.41011147318185        4.36432207303816        0.41675104696157
C            1.17584317242678        5.55743242448882        0.55503411012456
C            2.55679873650917        5.51376600321540        0.56139986094020
C            3.22631497229048        4.31633928717337        0.41858130886203
C            2.50501293078075        3.09513570775716        0.26522065684960
C            3.14442500256343        1.88105075877592        0.05158427805952
C            2.43179941416080        0.67619782393286       -0.09611302427273
C            3.20056207070128       -0.49189865717217       -0.54109072983554
C            2.80199767147670       -1.19796629957318       -1.67610686769413
C            3.56734969949110       -2.23936430308280       -2.16141847571618
C            4.74366264814210       -2.59833461926252       -1.52240050880023
C            5.15306730402862       -1.90017772386166       -0.39860857746908
C            4.39515986332015       -0.84937645270078        0.08207367788241
C            1.03594080901919        0.67348227833456        0.06988551641469
C            0.25854859796108       -0.54023136530797        0.15841895436996
C            0.90825452951375       -1.80770366173516        0.49194354197411
C            1.73520577952935       -1.87282436110133        1.61663258216716
C            2.31098273120805       -3.06585363617086        2.00207909732932
C            2.08462507996529       -4.21994241110684        1.26798992294433
C            1.27624683404257       -4.16656765716258        0.14440789264553
C            0.68795957867209       -2.97723564990517       -0.23769765460199
C            0.35545252672226        1.91937162956840        0.16345792217953
C            1.08503847135911        3.12582960408591        0.27970826790966
C           -2.66357447610419       -2.06788869116173       -1.11364979379452
C           -3.42590763421265       -3.22152337367342       -1.13899542664971
H           -4.07482940921496       -4.94483535967539       -0.04567786966176
H           -2.80084483276794       -4.34640033035563        1.98260490731283
H           -1.43961512144084       -2.29717456389299        2.02544459158464
H           -3.15378012887522        1.94821145729442       -2.00285547724906
H           -5.59083283390450        2.02566685453478       -2.33129677370452
H           -7.09405473024359        0.91437870343233       -0.71722605324119
H           -6.14057698181186       -0.26070136162038        1.23500353602588
H           -3.70781739328420       -0.33432402051896        1.56462710079910
H           -2.78461448078139        3.23399091754749        0.26830342451830
H           -1.51081869728876        5.31156817569402        0.54037651493441
H            0.65439805009289        6.49781490702513        0.65267041906374
H            3.11890569093448        6.43055698504478        0.67236121545801
H            4.30541925547479        4.28360197447093        0.41264461876456
H            4.22057794768941        1.85971304096519       -0.04231957601481
H            1.89319310855997       -0.90874765187643       -2.18474979059531
H            3.24838992715614       -2.77303749007597       -3.04528464305332
H            5.33956774841307       -3.41571930514348       -1.90125919710721
H            6.06934329102169       -2.17498442019043        0.10433914630934
H            4.71506360839370       -0.31445343074399        0.96500798753708
H            1.90316435326129       -0.97760688639220        2.19924286417449
H            2.93777039741076       -3.09892943720978        2.88190366958855
H            2.53787016662893       -5.15305905156765        1.56897014663376
H            1.10234342389049       -5.05923545680123       -0.43932261374075
H            0.07461497222344       -2.94432629855417       -1.12547012662999
H           -2.62252288082138       -1.42651169963704       -1.98287740339650
H           -3.98282517128719       -3.47718423896411       -2.02911664816559
