66
 energy: -98.891650197911 gnorm: 0.000039563065 xtb: 6.7.1 (edcfbbe)
C           -3.59002977213628       -3.93771130303758       -0.16389672124856
C           -3.54170657960781       -3.15195322366642        0.97529917817144
C           -2.74678127958816       -2.02058462423536        1.00493756623678
C           -1.98558822433998       -1.66471640637717       -0.10309097476986
C           -1.14880189500596       -0.44146277995078       -0.07088716600061
C           -1.77824346418055        0.79347983876292        0.02522829065060
C           -3.23490760891403        0.88742023786387        0.18585320905596
C           -4.10843168692460        0.31232971103560       -0.73622533031656
C           -5.47614182559132        0.39970270476341       -0.55811148353938
C           -5.99736887845536        1.05624813789364        0.54503724598119
C           -5.13919609204416        1.63676238426568        1.46557788211783
C           -3.77145160695228        1.56058995883830        1.28482254937972
C           -1.00046179037257        2.00360055593919       -0.09479615169867
C           -1.60529585602206        3.25430260846263       -0.22514619944748
C           -0.84976329666160        4.41131725024864       -0.34970708424578
C            0.54652375275366        4.35934653386391       -0.33010808562672
C            1.34956847833280        5.53050450339579       -0.44129040383192
C            2.72854353081414        5.44518451901062       -0.42822203812258
C            3.35988552762354        4.22637587209221       -0.29210460975386
C            2.60031852830596        3.02539004609700       -0.16693362398624
C            3.19954804092730        1.78988048734625        0.04102072527046
C            2.44861793762221        0.60519880472463        0.15984286062190
C            3.16949475598800       -0.59124878392944        0.60870326288543
C            4.37027333893206       -0.97756101890533        0.01529769731822
C            5.08166201512183       -2.05699934767599        0.50361380080081
C            4.61877826409784       -2.75629141624446        1.60577232682241
C            3.43544256887450       -2.36977054833443        2.21515716971337
C            2.71659144405767       -1.29945121728696        1.72201183015244
C            1.05685811247686        0.64704792177926       -0.03344961015561
C            0.24623950024054       -0.54094259739893       -0.16142272524492
C            0.86666044703012       -1.81948412891172       -0.50823051859766
C            0.59651131780691       -2.99685833485585        0.19139391031040
C            1.16055582572272       -4.19437338203857       -0.20156358562960
C            1.99337010165258       -4.24784334667432       -1.30712696385749
C            2.26900190011340       -3.08606596053249       -2.01163423489712
C            1.71796987035277       -1.88516852954709       -1.61458237152616
C            0.41531166724899        1.91383188935870       -0.11730789839905
C            1.18226006597548        3.09934084518944       -0.20292039256767
C           -2.03889535373827       -2.45938683846566       -1.24331171117305
C           -2.83840111715485       -3.58726949102912       -1.27317648934947
H           -4.21260277462838       -4.82037411979777       -0.18769393270994
H           -4.12650787988435       -3.41964305720899        1.84374480827920
H           -2.70822184202032       -1.40867216435108        1.89524251693720
H           -3.70862685302265       -0.18897921485081       -1.60510642127103
H           -6.13933281209722       -0.04670676970768       -1.28520484000579
H           -7.06663782231274        1.11814299812621        0.68565342254937
H           -5.53837542829911        2.15052413547103        2.32867356021237
H           -3.10339469352836        2.00591539591001        2.00901917917388
H           -2.68247161488710        3.32306871693113       -0.24118416480402
H           -1.34364190210622        5.36559819167155       -0.46251169641218
H            0.85818811159169        6.48746891426373       -0.53340548387819
H            3.31945677308175        6.34601129430438       -0.51841184983542
H            4.43731944316561        4.16141116876214       -0.27041591470959
H            4.27270435575321        1.73534118486415        0.15373267172187
H            4.73176221990522       -0.44210571730909       -0.85107641469714
H            6.00347828314234       -2.35355985881217        0.02368378787040
H            5.17855528739979       -3.59602024768215        1.99080223851568
H            3.07461964115688       -2.90443224590059        3.08217370516099
H            1.80236043941173       -0.98898741571769        2.20792146040272
H           -0.03679867535313       -2.96464421318323        1.06504336279077
H            0.94835751845890       -5.09329453826033        0.35944199883161
H            2.42762541182603       -5.18704711089780       -1.61690421464340
H            2.91515223208820       -3.11936038905378       -2.87734027813705
H            1.92464025360267       -0.98338569364875       -2.17421724168367
H           -1.45615696497474       -2.18495620092228       -2.11138527768699
H           -2.87431687272677       -4.19510559982166       -2.16595567316862
