51
 energy: -86.666303483115 gnorm: 0.000055618673 xtb: 6.7.1 (edcfbbe)
O            3.31547148301853        2.22939845795251        1.15208030676423
C            2.92039186600744        1.67113193839262        0.10594527836104
C            3.94266399528159        1.12094898374800       -0.87733994002501
C            3.79932513375265       -0.32442430141416       -0.46509360668288
O            3.06296770232715       -1.07337571712908       -1.16642577560932
C            4.40918005070441       -0.79024784398909        0.76413681545733
C            5.27813748821661       -0.00787476239695        1.54088769891654
C            5.82694281746826       -0.49214776940162        2.70921227772175
C            5.53528955703368       -1.77961638638449        3.14227714429960
C            4.68797348966048       -2.57887882811972        2.39976668480441
C            4.12232669693051       -2.10662546069115        1.21923329047713
O            3.29715900707627       -2.92444052413196        0.53797367947646
C            1.52196657404771        1.39302560522600       -0.13359239354509
C            1.00638531975277        0.86153108737911       -1.33344329175488
C           -0.32626393234555        0.54692867097492       -1.44551678654297
C           -1.20049748543746        0.77629448676981       -0.38025968979334
N           -2.56201839608020        0.40051163555746       -0.48668314433219
C           -3.55474910592751        1.35884465719734       -0.47958172330978
C           -3.27126235278577        2.72788289271228       -0.43172772395456
C           -4.29546927885123        3.65116064321840       -0.41775409507225
C           -5.62412726277916        3.23860012555874       -0.45901672452360
C           -5.92835210007113        1.89288994897055       -0.53345018979241
C           -4.90606071827255        0.95268757342911       -0.55138093365537
O           -5.25417140268011       -0.35442361781061       -0.65039140778143
C           -4.27053410283867       -1.28837954648568       -0.66839900606969
C           -4.65077563667364       -2.62112742459859       -0.76232524005785
C           -3.68924093920371       -3.61307270034928       -0.75522918667094
C           -2.34340635852258       -3.27710846992020       -0.63981332089041
C           -1.95245217459550       -1.95780977256023       -0.54719653407465
C           -2.90566140874256       -0.93427577938521       -0.57664328118474
C           -0.72073624546353        1.36304804049096        0.79796971541705
C            0.60974804480141        1.66592607680632        0.91081670962308
H            4.92570433457143        1.54349500160543       -0.68885840646051
H            3.66205320355321        1.25413480732431       -1.91961916358641
H            5.50991072624304        0.99903883179807        1.23659957563833
H            6.48510698568627        0.13739927712316        3.28927360214179
H            5.96751505562701       -2.15813317023547        4.05624273870499
H            4.44333012739080       -3.58329526486761        2.71068755340644
H            3.02450136812520       -2.41133011515627       -0.27789773782172
H            1.65090045620174        0.68095018060564       -2.17642098950300
H           -0.70806404535873        0.12901306549150       -2.36556029330993
H           -2.24334842609464        3.05146499316626       -0.41114870885409
H           -4.05828529941416        4.70246660387321       -0.37877554167209
H           -6.41868394500961        3.96710472062599       -0.44408794481221
H           -6.94682972649535        1.54330651228142       -0.58381133700788
H           -5.70177170886885       -2.84992685256351       -0.83374768773876
H           -3.98483154088631       -4.64724237674380       -0.82877632630098
H           -1.59220961094512       -4.05056592878871       -0.61654378752951
H           -0.90868721312787       -1.70823895752575       -0.44591513110518
H           -1.39624465426394        1.54036936215777        1.62163123411912
H            1.00963270217400        2.09181943754486        1.81929592823745
