51
 energy: -86.666461045451 gnorm: 0.000053774941 xtb: 6.7.1 (edcfbbe)
O            3.07770249542796        2.55895039147838        0.64869929472509
C            2.58654112417129        1.94352230255445       -0.32289955434764
C            3.46229076530128        1.65124103491055       -1.53399162673858
C            3.81884822128664        0.22825094714452       -1.18355917750387
O            3.15320146222611       -0.70245534667494       -1.71582030838501
C            4.85163768496743       -0.03762399736798       -0.20197699678789
C            5.61646994981403        0.96986585084827        0.40722698338817
C            6.59784653530591        0.66720171071776        1.32706129957792
C            6.86310118701254       -0.65459224604376        1.66358298531183
C            6.13046203647068       -1.67124271321384        1.08307440068568
C            5.12881135826782       -1.38496978745199        0.15960013673934
O            4.43974205560142       -2.41388572049146       -0.36806075398786
C            1.23898253604161        1.42624818195660       -0.29817566848016
C            0.62348762308834        0.73286576848815       -1.36104137666489
C           -0.66384382665314        0.26818538006361       -1.24505067452030
C           -1.39957139245074        0.49906802433946       -0.07932737501084
N           -2.72637055135284        0.01388372971712        0.02795673647686
C           -3.78695415488850        0.89522214415578        0.08298838197104
C           -3.61221227536974        2.28093160570530        0.00527150086772
C           -4.70108745666784        3.12485860508605        0.06796571343098
C           -5.98903798229734        2.61413244323133        0.19996901586711
C           -6.18873503544620        1.24812954334143        0.25488153595998
C           -5.10075641719381        0.38692979012009        0.19135885180697
O           -5.35037620730035       -0.94599981607883        0.22489295965453
C           -4.30159478619336       -1.80413142170263        0.16079292467304
C           -4.57920779964252       -3.16449089365636        0.20000116178850
C           -3.54442936416772       -4.07915549786942        0.16145461608822
C           -2.22614551983165       -3.63698061237777        0.09916064779700
C           -1.93685056836276       -2.28919193323748        0.05810999413469
C           -2.96850289195592       -1.34457133281613        0.07117096115150
C           -0.81793568774885        1.20915680359747        0.97884474846731
C            0.47030306868778        1.65841359552359        0.86670470995826
H            4.31637183148367        2.32284663763754       -1.55866870061338
H            2.91685643532982        1.69147241474092       -2.47428120437470
H            5.42023074243968        2.00399866145553        0.17897861161005
H            7.16114244802599        1.46551391712349        1.78677170710503
H            7.63688411109775       -0.89019905490724        2.37856158509376
H            6.31165500006303       -2.70724308695442        1.32633503044029
H            3.78944234625269       -2.00300487341290       -1.00857407721897
H            1.16262177643036        0.53360765812475       -2.27124871401461
H           -1.12194771590423       -0.26508441153887       -2.06522321603442
H           -2.61759321952689        2.68026057788446       -0.10908837975972
H           -4.54712632410756        4.19055199152532        0.00852241901828
H           -6.83416180841146        3.28159783746437        0.24982925473726
H           -7.17499622023624        0.82183246743119        0.34130749675353
H           -5.60935167470225       -3.47537507055884        0.26428864548497
H           -3.76083809757063       -5.13490723457176        0.19023997959923
H           -1.41689415982763       -4.34972448100624        0.08609151408578
H           -0.91309339845478       -1.95356190304771        0.01990227023541
H           -1.38098885546229        1.37440163359415        1.88552755543199
H            0.94754959201398        2.19126647648967        1.67599763345667
