57
 energy: -90.392652436321 gnorm: 0.000045114317 xtb: 6.7.1 (edcfbbe)
C            4.95690809776836       -3.27006842644440        0.50424945883569
C            3.81126448977636       -3.07738187372185        1.26046570663953
C            3.10184098989424       -1.89731129650106        1.16302542444795
C            3.53229719608388       -0.89330822049517        0.29608782141457
N            2.81258811134701        0.30524590768462        0.19903410978287
C            3.50028968604458        1.51676203787175        0.10209786621071
C            4.69216212736457        1.70876820803603        0.80585193545075
C            5.36988312771186        2.90757199014055        0.70763575452817
C            4.87372904012780        3.93254988641873       -0.08434701483689
C            3.69150527617262        3.74742257859990       -0.78463116940251
C            3.00729743633110        2.55100994066480       -0.69775902673665
C            1.43263207767881        0.27566869475566        0.17990132439482
C            0.68212638971328        1.32565195874851        0.77568296202462
C           -0.68151406120959        1.32600966386223        0.77543616133278
C           -1.43235982807262        0.27641299429093        0.17940037531035
N           -2.81230645285025        0.30673519518456        0.19801625193861
C           -3.49931177089657        1.51863435037555        0.10087123369183
C           -3.00550563754888        2.55261075206508       -0.69883365101915
C           -3.68900458079073        3.74941670008593       -0.78587931440842
C           -4.87131340347474        3.93521089113414       -0.08591517333261
C           -5.36828016848811        2.91050150240373        0.70590513000924
C           -4.69127941090940        1.71130343245898        0.80428196004170
C           -3.53270289710997       -0.89142496271005        0.29480346514673
C           -3.10306978479505       -1.89569455075586        1.16184249100592
C           -3.81316113313863       -3.07538548712836        1.25900862884555
C           -4.95866001641919       -3.26742457048714        0.50240814832038
C           -5.39203238877819       -2.26868366610644       -0.35546792813596
C           -4.68649031337959       -1.08631533089468       -0.46281308014471
C           -0.71994304809607       -0.78939230203807       -0.41165045414014
N           -1.24511228584647       -1.82314872352052       -1.06464589735867
S           -0.00032630013238       -2.75115787006524       -1.65096287628328
N            1.24473412143544       -1.82375451891033       -1.06426785238479
C            0.71986781345580       -0.78975431905325       -0.41141574725685
C            4.68622277720799       -1.08885423128662       -0.46114856209042
C            5.39109638540403       -2.27159605847179       -0.35352653326865
H            5.50759792518320       -4.19523046387390        0.58231293619693
H            3.47114810407750       -3.84973385302213        1.93466372856470
H            2.21598410464452       -1.73754120503919        1.76110058002673
H            5.07060405055630        0.91524742653847        1.43295763313936
H            6.28783487026353        3.04589323255618        1.25906028409284
H            5.40644134617990        4.86822654988926       -0.15755663466711
H            3.30405885080658        4.53686422263882       -1.41137740450311
H            2.09882154669621        2.39575491286563       -1.26125194421967
H            1.22054363000191        2.11660355534263        1.27554080653338
H           -1.21969639338809        2.11724302577844        1.27510109701506
H           -2.09695912473505        2.39684706732227       -1.26207224538964
H           -3.30092187076615        4.53865552605991       -1.41248714075580
H           -5.40346922362488        4.87119364098933       -0.15925546614755
H           -6.28632197561897        3.04933105697791        1.25705176794788
H           -5.07036081149917        0.91798270990748        1.43125433118955
H           -2.21731445722017       -1.73642657459192        1.76020149998528
H           -3.47365083201828       -3.84796988706394        1.93324711196458
H           -5.50985516391878       -4.19230624326805        0.58022815847074
H           -6.28011166763909       -2.41543506847986       -0.95210768631355
H           -5.01149884412402       -0.31399068604739       -1.14453228750253
H            5.01185230824844       -0.31674525065744       -1.14281415912878
H            6.27928117429293       -2.41885179988353       -0.94988483417747
