  57
        -90.35320997
 C          4.9687148515       -3.2423950969        0.4475789946
 C          3.8434660871       -3.0526115855        1.2338085688
 C          3.1308599400       -1.8733420031        1.1594157011
 C          3.5377013644       -0.8671838528        0.2842532627
 N          2.8116291415        0.3279579155        0.2019588922
 C          3.4912382938        1.5380606620        0.0832217002
 C          4.7102568940        1.7304587497        0.7395653197
 C          5.3796967176        2.9314202943        0.6219065018
 C          4.8503196278        3.9598011691       -0.1433344419
 C          3.6424196665        3.7743284976       -0.7979081439
 C          2.9656648698        2.5761654897       -0.6913030825
 C          1.4335101010        0.2923707983        0.2103792535
 C          0.6824146901        1.3509118947        0.7941371526
 C         -0.6803215241        1.3513603739        0.7944668696
 C         -1.4325610213        0.2937085160        0.2103709420
 N         -2.8105975964        0.3288532429        0.2040742369
 C         -3.4926910176        1.5375831814        0.0884060667
 C         -2.9682349847        2.5813371448       -0.6793534701
 C         -3.6486157498        3.7778197508       -0.7820901436
 C         -4.8595890451        3.9559427043       -0.1312047033
 C         -5.3882220785        2.9218738047        0.6270611492
 C         -4.7147366126        1.7229718488        0.7414086100
 C         -3.5350168071       -0.8679663353        0.2817893883
 C         -3.1326292441       -1.8718171943        1.1616106395
 C         -3.8425180738       -3.0530195248        1.2317018904
 C         -4.9604491618       -3.2466713718        0.4358380519
 C         -5.3673208703       -2.2473519946       -0.4337123688
 C         -4.6617587013       -1.0632653155       -0.5143703326
 C         -0.7199735014       -0.7900380154       -0.3463587045
 N         -1.2403823973       -1.8442686115       -0.9660865171
 S         -0.0014614959       -2.7871129790       -1.5220366087
 N          1.2398262771       -1.8448377983       -0.9667096245
 C          0.7199891861       -0.7906734054       -0.3469252762
 C          4.6715940507       -1.0588593574       -0.5029858400
 C          5.3799347818       -2.2407760866       -0.4174457565
 H          5.5210394691       -4.1677945541        0.5065185011
 H          3.5223811494       -3.8277603591        1.9136451077
 H          2.2623375185       -1.7159321890        1.7809819766
 H          5.1162300354        0.9348525387        1.3461410861
 H          6.3187716557        3.0692833113        1.1366769020
 H          5.3772431634        4.8973107015       -0.2313661510
 H          3.2298343494        4.5665954902       -1.4046654418
 H          2.0376575322        2.4215517584       -1.2203876394
 H          1.2218963564        2.1481430852        1.2821602819
 H         -1.2190784350        2.1487951082        1.2830152327
 H         -2.0380771941        2.4329956634       -1.2065167907
 H         -3.2363239944        4.5743879888       -1.3834373590
 H         -5.3894145615        4.8920718019       -0.2166336486
 H         -6.3296532656        3.0541824503        1.1389377783
 H         -5.1199616491        0.9226849345        1.3424430024
 H         -2.2684469099       -1.7118227322        1.7886615593
 H         -3.5245354861       -3.8270079377        1.9141909845
 H         -5.5107726914       -4.1735492110        0.4910736933
 H         -6.2336993507       -2.3957122804       -1.0610001249
 H         -4.9646899840       -0.2904819553       -1.2053120378
 H          4.9778067857       -0.2849782097       -1.1912095071
 H          6.2518930838       -2.3861629050       -1.0376861620
