57
 energy: -90.444879224865 gnorm: 0.000179576083 xtb: 6.7.1 (edcfbbe)
C            4.87231276418240       -3.31334804556323        0.52133146450778
C            3.73080846649541       -3.08451988999476        1.27207657013456
C            3.06116158371617       -1.88009635106904        1.17477622647222
C            3.52180475444870       -0.89009847811982        0.30920808749408
N            2.83584974976199        0.32935889621553        0.20467239965831
C            3.54845082660019        1.52973162109533        0.10224800116568
C            4.74553486310541        1.69773497251932        0.79879031968498
C            5.45568132644868        2.87787551637512        0.68907112146964
C            4.98418333556396        3.90999723422738       -0.10613708011225
C            3.79396755913067        3.74973016411622       -0.79750347528320
C            3.08045193227295        2.57075149275674       -0.69982741843706
C            1.44471429257721        0.32675048525416        0.20553983665683
C            0.69906428619055        1.31712301061057        0.81565291750703
C           -0.69875090430767        1.31695142954362        0.81592630807812
C           -1.44456706172956        0.32693934474318        0.20540031790340
N           -2.83574503845603        0.33024278516971        0.20415670375002
C           -3.54737052694647        1.53106843770168        0.09983311148402
C           -3.07829034419208        2.57052087336723       -0.70365278800370
C           -3.79080947593735        3.74994232031956       -0.80327661022791
C           -4.98104099634469        3.91224767521601       -0.11240353902576
C           -5.45359987601537        2.88170366652583        0.68423228163094
C           -4.74449105362719        1.70111287170440        0.79583699119366
C           -3.52247719457698       -0.88863046930208        0.30947863488205
C           -3.06194705741761       -1.87870800411198        1.17504486869379
C           -3.73224616912052       -3.08269703565318        1.27303563485567
C           -4.87446304677629       -3.31095006416525        0.52318810145949
C           -5.34105485177645       -2.32510773776287       -0.33125973116563
C           -4.67103166683100       -1.12212616690922       -0.44328667200228
C           -0.72066801963888       -0.70203899454629       -0.44842933374677
N           -1.21728103688082       -1.71991362092588       -1.14983531589649
S           -0.00017922089592       -2.58939906968901       -1.74467912720297
N            1.21702408867659       -1.71995428754942       -1.14986533223259
C            0.72064291194253       -0.70221033993013       -0.44814095493456
C            4.66973801904752       -1.12410024960962       -0.44433179950950
C            5.33901301602378       -2.32758307991527       -0.33313535957449
H            5.39513798464916       -4.25446734519413        0.60220842053415
H            3.36375960147586       -3.84562030972043        1.94546589749558
H            2.17769454740430       -1.69647216697526        1.77057277442037
H            5.11091462088609        0.89732040139681        1.42537388390460
H            6.37996366525271        2.99450441490237        1.23577578197968
H            5.53974245383881        4.83195942666927       -0.18723693482471
H            3.42132769517759        4.54572904134930       -1.42567050125623
H            2.15918187284530        2.44430922974096       -1.25012154476297
H            1.21476657926799        2.11968896022184        1.32176924996233
H           -1.21437751197425        2.11986253803428        1.32155765342819
H           -2.15683651883179        2.44260843648025       -1.25329326458466
H           -3.41737337637815        4.54468369086338       -1.43257450711888
H           -5.53603956102189        4.83438181441122       -0.19539047398898
H           -6.37821631930350        2.99969009305382        1.23004119275540
H           -5.11081213008630        0.90184936528406        1.42332393369078
H           -2.17808372928875       -1.69544702238080        1.77036041582910
H           -3.36545550379958       -3.84369139963534        1.94669764930472
H           -5.39806207594940       -4.25157007399558        0.60493281546563
H           -6.22848281439423       -2.49730738170229       -0.92265819898213
H           -5.02761228573929       -0.35788927336599       -1.11836601510788
H            5.02650834109707       -0.35977518828933       -1.11920058800192
H            6.22593611509910       -2.50022206367823       -0.92515588041958
