  72
       -111.46849928
 N          1.5490102609        2.7282944605        1.5114582189
 C          0.8622747202        2.0990903206        0.8261470403
 C          0.0056782097        1.3586870666        0.0234594312
 C         -0.8436069516        2.0967067066       -0.7889056985
 N         -1.5237751738        2.7231996371       -1.4835455569
 C          0.0028172733       -0.0838398491        0.0308064399
 C          1.2073596350       -0.7796398155        0.3750415662
 C          1.1699766125       -2.0460976218        0.9999269377
 C          2.3327255662       -2.7045412990        1.3361944591
 C          3.5703643635       -2.1414771255        1.0731927999
 C          3.6331160412       -0.8812855810        0.4614514234
 N          4.8769141871       -0.2963017870        0.1952978229
 C          5.9321175276       -1.0792804253       -0.2623915847
 C          7.2488975397       -0.7768982441        0.0951931836
 C          8.2900324414       -1.5575672456       -0.3642966797
 C          8.0427227776       -2.6514556796       -1.1794501832
 C          6.7388139526       -2.9592289495       -1.5342097106
 C          5.6896060635       -2.1827044685       -1.0853062385
 C          5.0394345936        1.0822510906        0.3738740460
 C          5.8153056878        1.8241567811       -0.5185209420
 C          5.9700619646        3.1833433535       -0.3334381806
 C          5.3562593932        3.8201535079        0.7343634334
 C          4.5835889683        3.0879589226        1.6208848691
 C          4.4236411895        1.7279705283        1.4468424650
 C          2.4674011511       -0.2155003209        0.1218644292
 C         -1.1998228249       -0.7826629253       -0.3104305686
 C         -1.1571260735       -2.0606156088       -0.9119864774
 C         -2.3164889836       -2.7221744111       -1.2527847912
 C         -3.5560761945       -2.1511070142       -1.0185726782
 C         -3.6247934608       -0.8803687448       -0.4289294556
 N         -4.8715707597       -0.2902544053       -0.1933721361
 C         -5.9419706642       -1.0710121271        0.2344353000
 C         -5.7281112916       -2.1621170638        1.0809508188
 C         -6.7916272214       -2.9373302721        1.4976005551
 C         -8.0812604803       -2.6402283990        1.0859464883
 C         -8.3000963093       -1.5578305654        0.2476558606
 C         -7.2442883681       -0.7781107564       -0.1790363667
 C         -5.0326155638        1.0869406541       -0.3824472096
 C         -4.3913282641        1.7320144993       -1.4407777559
 C         -4.5538553079        3.0905500281       -1.6242144366
 C         -5.3544349557        3.8218131462       -0.7619718563
 C         -5.9941536735        3.1855247033        0.2909849097
 C         -5.8371234113        1.8279349562        0.4852960137
 C         -2.4622544892       -0.2120062940       -0.0831623253
 H          0.2139081587       -2.4791145535        1.2530156815
 H          2.2814367294       -3.6652795831        1.8277808919
 H          4.4803250273       -2.6453262910        1.3608348289
 H          7.4420406171        0.0641124554        0.7444298724
 H          9.3024777604       -1.3157144307       -0.0773335076
 H          8.8603183308       -3.2588934961       -1.5359998512
 H          6.5381659176       -3.8052883234       -2.1745447722
 H          4.6762198386       -2.4121576926       -1.3793047977
 H          6.2758498581        1.3303851622       -1.3619917244
 H          6.5628981797        3.7511751807       -1.0353052733
 H          5.4749917354        4.8842996923        0.8692693534
 H          4.0917732777        3.5745321195        2.4472179467
 H          3.8243712395        1.1587577470        2.1403508419
 H          2.5379592063        0.7376291045       -0.3811020073
 H         -0.1988843881       -2.4999768240       -1.1447957192
 H         -2.2607928182       -3.6915459133       -1.7263698868
 H         -4.4627115272       -2.6570889832       -1.3127053692
 H         -4.7261131410       -2.3833143793        1.4174147496
 H         -6.6138417359       -3.7740743458        2.1566318280
 H         -8.9101018186       -3.2472421868        1.4163270108
 H         -9.3010865939       -1.3244743671       -0.0832976351
 H         -7.4140351427        0.0545348026       -0.8454831069
 H         -3.7708410455        1.1637874073       -2.1161329877
 H         -4.0427284376        3.5763505866       -2.4392993644
 H         -5.4763225400        4.8845097314       -0.9049947577
 H         -6.6106249909        3.7522336569        0.9730974931
 H         -6.3187526837        1.3344286241        1.3171244580
 H         -2.5371823251        0.7490671977        0.4035991011
