72
 energy: -111.470624612202 gnorm: 0.000049194325 xtb: 6.7.1 (edcfbbe)
N            2.81444683891607       -3.84572701733098       -0.94850629473627
C            1.78992429069024       -3.55058118622724       -0.50117193786203
C            0.55553791862784       -3.20471863357684        0.02666326260911
C            0.00895430494253       -4.07919155228941        0.95391580792216
N           -0.43548523517777       -4.80789458749363        1.73353298012625
C           -0.12317802887461       -1.98941645358905       -0.38368529898490
C            0.67998620951669       -0.85798738189077       -0.75368474912053
C            0.25054337919663        0.05241908325473       -1.74232126233592
C            1.04260908760183        1.11738304397934       -2.11245357407561
C            2.27752762458119        1.32275699102355       -1.52236509628715
C            2.72710016101462        0.43286093951502       -0.53606506713034
N            3.97004698245199        0.63465570199860        0.06844025376537
C            4.42668494462745        1.92829789685001        0.31892877112809
C            5.78619730009914        2.23013681353428        0.21067248653196
C            6.23497035707379        3.51150358003336        0.45976281908568
C            5.34335716611632        4.51161456497282        0.81542522582034
C            3.99329144998975        4.21822931742550        0.92376382034447
C            3.53347225956598        2.93902784295688        0.68190990942880
C            4.75190624792406       -0.46570156652077        0.44384768464252
C            5.47344545476219       -0.43867434097569        1.63833249072152
C            6.24297097863968       -1.52466409099442        2.00520718217938
C            6.30147418731500       -2.64814115731099        1.19470298333725
C            5.58638362122520       -2.67881728611401        0.00850789142795
C            4.81779413307021       -1.59620902375376       -0.37089423488703
C            1.93447032290494       -0.64270265190991       -0.16536442590412
C           -1.55220351943631       -1.94549180377900       -0.40474441811164
C           -2.33584224125040       -3.11199965595464       -0.54869839191921
C           -3.71181495215774       -3.04247982993137       -0.54724338252125
C           -4.36631799276277       -1.82932499070178       -0.40883275524951
C           -3.61059639366436       -0.66029752307096       -0.25180403156226
N           -4.24626313222815        0.58075555019327       -0.10915719607649
C           -5.39717607694877        0.69767508257771        0.66814719918930
C           -5.58136282984185       -0.11519467451219        1.78860373960409
C           -6.73062728169535       -0.00332963073874        2.54556913556456
C           -7.70813241848343        0.91888993751741        2.20730888328343
C           -7.52844923631957        1.73090385455195        1.09847071878846
C           -6.38648119421984        1.62380007818322        0.33030930584333
C           -3.67777333101308        1.70418132608986       -0.71728767970779
C           -3.64858734609827        2.93448700805037       -0.06038804957770
C           -3.06489396857659        4.02991168934335       -0.66643653944768
C           -2.50096385457804        3.91815533495570       -1.92712983628737
C           -2.53311639337439        2.69953411089319       -2.58640922273102
C           -3.11851605022672        1.60004434885602       -1.99184306174106
C           -2.22846480434312       -0.72511944572666       -0.24188275266000
H           -0.68864798739237       -0.11829975867669       -2.24457744006289
H            0.70363037667367        1.79394985184588       -2.88301839372817
H            2.90708491431425        2.14216746993081       -1.83349267255422
H            6.47936135654552        1.45519534760655       -0.08108545664502
H            7.28756550289368        3.73360261356065        0.36744562044770
H            5.69862221840656        5.51223620644171        1.00798227990145
H            3.29333378760903        4.98964560705436        1.20847766934344
H            2.48343484956529        2.70805410713511        0.78461818560160
H            5.41164187539777        0.42974235728584        2.27827439947658
H            6.79065225082687       -1.49793402363580        2.93563965476015
H            6.89933183088512       -3.49666882822523        1.49010556612915
H            5.61594505863397       -3.54954804779015       -0.62630103862420
H            4.26661574061556       -1.62278929744337       -1.29793164922728
H            2.27862275487809       -1.30234845670886        0.61789807752622
H           -1.85222356230161       -4.06541862699918       -0.69306065333805
H           -4.29074543485260       -3.94523558672647       -0.67223569068674
H           -5.44379773298767       -1.77446830472368       -0.43334228814770
H           -4.81370465807010       -0.82296818352473        2.06394613506513
H           -6.85947128533207       -0.63518611708511        3.41155012034810
H           -8.60359709746168        1.00463718312656        2.80339526327656
H           -8.28841018126955        2.44734036839329        0.82397864744054
H           -6.25611235093769        2.24570294464724       -0.54318099856961
H           -4.07388297886833        3.01856302414853        0.92893339379380
H           -3.04199632308327        4.97586050387696       -0.14598245842073
H           -2.04175230983417        4.77606996988267       -2.39396111284860
H           -2.10816977970215        2.60749491913630       -3.57494033966877
H           -3.16014771230678        0.65345801198986       -2.51040204468406
H           -1.66189333558124        0.17747126067193       -0.06538699585840
