  81
       -122.75437666
 C         -1.2372268426        2.4441644200        1.1967103293
 C         -0.5748453910        1.2651120086        0.5470322402
 C          0.8090964543        1.1997720943        0.5163709534
 C          1.4933105626        0.1440787243       -0.0805525250
 C          2.9599745838        0.1118461526       -0.0311064401
 C          3.7176410424        1.1064415829       -0.7085651530
 C          3.0964165253        2.1154044024       -1.4540553904
 C          3.8325487078        3.1382412526       -2.0420832980
 C          5.2022189176        3.1757882280       -1.8822736893
 C          5.8487981415        2.1579920767       -1.1844751047
 C          5.1429178141        1.0837241134       -0.6371066441
 C          5.8041356991        0.0034514082        0.0326322843
 C          7.2522438751       -0.0600338422        0.0509726913
 C          7.9564555773       -0.2167067624        1.2571641556
 C          9.3289993512       -0.2729316050        1.2784506058
 C         10.0537030777       -0.1961064982        0.0818857211
 C         11.4576956175       -0.2669098871        0.0964231584
 N         12.6059496528       -0.3245789205        0.1065842723
 C          9.3664333164       -0.0481512663       -1.1300604515
 C          7.9948218779        0.0299014362       -1.1389715292
 C          5.0350993654       -1.0076328293        0.6935533912
 C          5.6267461320       -2.1269969806        1.2849205885
 C          4.8726297852       -3.0629438453        1.9893402500
 C          3.5089904250       -2.8955432512        2.1142810215
 C          2.8833874765       -1.8315724747        1.4732216295
 C          3.6122426167       -0.9095929786        0.7130108820
 C          0.7623484636       -0.8631681234       -0.7252682487
 C          1.4540700903       -1.9756536015       -1.4540654405
 C         -0.6186668030       -0.7909907154       -0.7036904307
 C         -1.3030554436        0.2363577095       -0.0582350979
 C         -2.7749943329        0.1938196148       -0.0451322940
 C         -3.4855517455        0.0483802108       -1.2342875525
 C         -4.8641678228       -0.0197621720       -1.2326167524
 C         -5.5647273155        0.0334416049       -0.0303370102
 N         -6.9626781404       -0.0497167013       -0.0205403574
 C         -7.7192778900       -1.0108298803       -0.6616874504
 C         -7.3092503268       -2.1078209948       -1.4062424891
 C         -8.2855735956       -2.9388751244       -1.9219878903
 C         -9.6390736874       -2.6968543752       -1.6990299092
 C        -10.0522286239       -1.6216628768       -0.9368662974
 C         -9.0897938580       -0.7724318691       -0.4082865545
 C         -9.1535265700        0.3958615651        0.4255953538
 C        -10.2018148172        1.1148599828        0.9832711331
 C         -9.9086851514        2.2330905150        1.7390799457
 C         -8.5915360392        2.6453537505        1.9275282161
 C         -7.5315126894        1.9462216533        1.3823162975
 C         -7.8182441236        0.8069317640        0.6435295975
 C         -4.8615014439        0.1642532725        1.1643902811
 C         -3.4843636993        0.2511093307        1.1523351243
 H         -0.6410330975        3.3411068909        1.0399119524
 H         -2.2334542783        2.6076832193        0.7927460012
 H         -1.3248303285        2.2901459508        2.2725312156
 H          1.3836140002        1.9834074577        0.9911156190
 H          2.0233642530        2.0982187855       -1.5691614715
 H          3.3250201930        3.9056609505       -2.6069028172
 H          5.7819195934        3.9851169292       -2.2995933260
 H          6.9189963459        2.2130879365       -1.0578176707
 H          7.4045768713       -0.2445270024        2.1853938845
 H          9.8600262525       -0.3714280835        2.2141181133
 H          9.9252121454        0.0000618062       -2.0534388941
 H          7.4690640766        0.1149264239       -2.0787918282
 H          6.6900795877       -2.2827989492        1.1883743368
 H          5.3654904262       -3.9097281993        2.4424500025
 H          2.9206518681       -3.5951728158        2.6888810039
 H          1.8145689548       -1.7078410708        1.5631506096
 H          1.7669599116       -2.7562155566       -0.7600454016
 H          2.3457311971       -1.6070336595       -1.9581282225
 H          0.7886721565       -2.4211792177       -2.1898339132
 H         -1.1929900183       -1.5670715285       -1.1908677196
 H         -2.9486780949        0.0134869036       -2.1711484544
 H         -5.4076638943       -0.0995265426       -2.1622684767
 H         -6.2622655252       -2.3147985380       -1.5690668853
 H         -7.9919221395       -3.7973419572       -2.5077300505
 H        -10.3715689708       -3.3681646983       -2.1214537279
 H        -11.1003512926       -1.4435366542       -0.7499313277
 H        -11.2232895523        0.8045144934        0.8236731240
 H        -10.7091231297        2.8045472912        2.1844758416
 H         -8.3939950696        3.5331436748        2.5098214282
 H         -6.5153010318        2.2844432831        1.5189960262
 H         -5.4002642486        0.1768782012        2.1001178440
 H         -2.9469703780        0.3317203674        2.0850576622
