121
 energy: -168.873562465605 gnorm: 0.000070170738 xtb: 6.7.1 (edcfbbe)
C          -12.39731734521019       -2.87346171500244       -2.22630024821833
C          -10.96436017906062       -3.26474365572077       -2.59788090991374
C          -10.74508517912293       -4.72360496501056       -2.17237247742886
C          -10.81634022358306       -3.13910902308929       -4.12068206204756
C           -9.92378671142315       -2.38711691632935       -1.91751269617915
C           -8.56646389125972       -2.63367321705812       -2.16222658158295
C           -7.55278279794667       -1.90330391541304       -1.57600578250895
C           -7.90283478205067       -0.88909251443218       -0.69795282162042
C           -9.26252604942792       -0.59598423163023       -0.46476172008014
C          -10.26242189939478       -1.34614973884931       -1.06888367838498
C           -9.28966440279967        0.53050415746739        0.42730170802823
C          -10.31870378933884        1.25232882030100        1.01011132506828
C          -10.03073501281970        2.30548376568319        1.86803472855111
C          -11.17901950458403        3.09645591262298        2.47919624745936
C          -10.70347625489269        4.23270886359636        3.38861211514952
C          -12.05138779264444        2.15014080214939        3.31607063761430
C          -12.01713223545604        3.71267994283944        1.34975678074532
C           -8.69102712922547        2.59162082995326        2.14404050798473
C           -7.64445235132357        1.88697011098155        1.57727071650280
C           -7.94386590318079        0.86492824668205        0.69232997449966
N           -7.11089820509870       -0.00038903561300        0.00592309439134
C           -5.71473918981577        0.02051749733160        0.02138318021003
C           -5.02433888331881        1.22263577689326       -0.12418930209855
C           -3.64630769739608        1.24334108259952       -0.09182545938904
C           -2.91767031850796        0.06380972004119        0.05540308931898
C           -1.45551993387663        0.07949289018391        0.06740570025333
C           -0.70066952717244       -0.89591911573048       -0.54750579350073
C            0.69937236970111       -0.88856845798001       -0.54138926968945
C            1.44902471188093        0.08149532373383        0.09384571821648
C            2.91157168644767        0.05966382768565        0.09326854473239
C            3.65192306010432        1.23981247505943        0.18171873225244
C            5.03026571459151        1.21765524041659        0.17221297128048
C            5.71655824277779        0.01028746129061        0.05858506169502
N            7.11274869860663       -0.01346901864918        0.03534594091997
C            7.92487698024871       -0.86965215007355        0.75676754133009
C            7.60312324533325       -1.83752440853134        1.69330703544547
C            8.63264795245279       -2.54590841512763        2.28602965102484
C            9.97783895642301       -2.31534785866773        1.98592732218337
C           11.10711563020126       -3.11026418332935        2.62663320218390
C           10.60568256552214       -4.18596164707381        3.59395604107754
C           12.01464976941712       -2.15122794027116        3.40990328574960
C           11.91662061628858       -3.80588498155926        1.52272222146226
C           10.28971953787991       -1.31474952260128        1.07510061584053
C            9.27800652602146       -0.59067387780809        0.46549648408851
C            9.27734633079128        0.49142648950966       -0.48017235826432
C           10.29445322458315        1.17970732874580       -1.12785026496225
C            9.98023798153405        2.18830868948083       -2.02353272670166
C           11.04095702799273        2.99933529314004       -2.75360056775962
C           10.87034932927968        4.48306399813158       -2.39747554001558
C           10.87515504843046        2.80524367961723       -4.26735454494131
C           12.46460069143704        2.58206264398096       -2.37453576483969
C            8.62888398054533        2.46497341725318       -2.26947826565755
C            7.59851522841311        1.79616145781985       -1.64058226966342
C            7.92534658183224        0.81532487070422       -0.71680507072545
C            4.98722088462850       -1.17397160322196       -0.02861766244743
C            3.60919591156974       -1.14664785867248       -0.00245957021234
C            0.71012499018651        1.10430849569928        0.74242212803930
N            1.18983941399623        2.13541235438967        1.43953402090823
S           -0.03612046585944        3.00745625434836        2.00306079600540
N           -1.24077580094626        2.13470882322731        1.39863167140494
C           -0.73208645952515        1.10528148505804        0.72070438590223
C           -3.61435831839499       -1.13719088134015        0.18927874297929
C           -4.99298416029355       -1.16028370920137        0.18718122042982
H          -12.61769786332358       -1.85471756774758       -2.53673233013155
H          -13.09691826839832       -3.53674775362843       -2.73132625195552
H          -12.56204385424160       -2.96456178908877       -1.15512081844422
H          -10.82998391196056       -4.81579271654121       -1.09146993838250
H           -9.76221953976784       -5.07995008259869       -2.46781237347946
H          -11.49263561001111       -5.36584121972666       -2.63363585988241
H          -11.56879750520602       -3.74457053576004       -4.62198912967948
H           -9.83680990707369       -3.47085998522294       -4.45340591437646
H          -10.94664773317355       -2.10292681861531       -4.42609072287292
H           -8.28660364827720       -3.42581392802302       -2.84007237367022
H           -6.52043323814313       -2.11462194510302       -1.81080619328350
H          -11.28972233800894       -1.09582621998260       -0.86290675208148
H          -11.33852664716374        0.97881848662413        0.78703629115042
H          -11.56674526578725        4.76550626829231        3.78291751003120
H          -10.13377741677083        3.84858414379899        4.23160003056499
H          -10.09247672314829        4.94484194981620        2.83869151231082
H          -12.87103519077771        2.70052225450473        3.77362900540614
H          -11.45847817981644        1.69313367888347        4.10572627186904
H          -12.47333854867585        1.35671712867949        2.70559603966748
H          -12.83694019454940        4.29552805879561        1.76484743158643
H          -11.40007689701046        4.36979782654125        0.74028640654179
H          -12.43743907538581        2.94654991877454        0.70436376715765
H           -8.44050418709878        3.38738281549527        2.82581628921704
H           -6.62437333494828        2.12801571482699        1.83552490590083
H           -5.57664862810523        2.13678047502499       -0.28042107497814
H           -3.12116677654864        2.17890829142870       -0.20115531528390
H           -1.20545373911324       -1.68737154607331       -1.08192723994212
H            1.20706385356708       -1.67234353858004       -1.08310993012540
H            3.13562970071197        2.18192190604075        0.26810881429955
H            5.58601543246873        2.13785608175443        0.27027164993211
H            6.57864589975597       -2.03356990046885        1.97177329377359
H            8.36421263742728       -3.29907228976733        3.00825662124114
H            9.96861529220721       -4.90502754887693        3.08403858632370
H           11.45596672273824       -4.72510214252204        4.00737873691940
H           10.05539433528666       -3.74412211656513        4.42142975674852
H           12.45477057388220       -1.40163696296886        2.75826721769770
H           11.44256757209283       -1.63851380193337        4.18048117232602
H           12.82140436161207       -2.70327554507300        3.88791193975033
H           11.27502704388148       -4.47303430864243        0.95060659740931
H           12.72225998688670       -4.39228483728507        1.95995800021218
H           12.35395802456659       -3.08517221142468        0.83757172406291
H           11.31531041071412       -1.08401492321568        0.83113874176054
H           11.31537686230605        0.90764858887814       -0.91772306601981
H           11.63293718595690        5.07887298711561       -2.89501407326814
H           10.96792522776801        4.62444675743333       -1.32298796183068
H            9.89615961301757        4.85504583082612       -2.70216782405315
H            9.90314156981489        3.15067485196631       -4.60807676715410
H           11.64102264882663        3.36243148252268       -4.80315068447423
H           10.97107865855937        1.75205265363272       -4.52336756307109
H           13.17954973817489        3.19816391547795       -2.91648569167133
H           12.64184842828288        2.71957405290579       -1.31033420177547
H           12.65080627420820        1.54316604279851       -2.63687724678028
H            8.36729414317621        3.23176375450814       -2.98280097678004
H            6.57112930475968        2.02865151692489       -1.87687364636913
H            5.50813213535583       -2.11407136103436       -0.13098950848967
H            3.06863632863125       -2.08038290268239       -0.04283466746623
H           -3.06771329200276       -2.05737151275459        0.33549881237290
H           -5.52079494653367       -2.09018389292015        0.33641923948644
