  73
       -121.37412322
 C         -7.0178546409        3.1048371815       -2.7980222355
 C         -5.6747328524        2.7884746144       -2.8955516734
 C         -5.0706967899        1.9888367779       -1.9406131459
 C         -5.8018426217        1.4975300448       -0.8631407292
 C         -7.1700167563        1.8044913529       -0.7863039663
 C         -7.7663855137        2.6054801842       -1.7443709619
 O         -7.9693537127        1.3251716294        0.2157004740
 C         -7.3936068137        0.5207124469        1.1613224448
 C         -8.2148577377        0.0374192062        2.1649521964
 C         -7.6923163548       -0.7648748865        3.1663656299
 C         -6.3431846526       -1.0702904034        3.1655923841
 C         -5.5155709273       -0.5921950304        2.1642787570
 C         -6.0270668737        0.1970821609        1.1383921190
 N         -5.2285623104        0.6937082226        0.1148384307
 C         -3.8450453307        0.3848314710        0.0639361408
 C         -2.8978777738        1.3975688176        0.2749438468
 C         -1.5667970902        1.0879572804        0.2179737370
 C         -1.1353414418       -0.2255756950       -0.0376094125
 C         -2.0868946965       -1.2558405992       -0.2435087310
 C         -3.4425883114       -0.9082663844       -0.1920604574
 C         -1.6351173799       -2.6010790393       -0.5019898241
 C         -2.5125628600       -3.6774083221       -0.7054156440
 C         -2.0477632693       -4.9459921393       -0.9537622245
 C         -0.6760619564       -5.1975643069       -1.0091369251
 C          0.2091534634       -4.1704438701       -0.8098255538
 C         -0.2467604763       -2.8672862133       -0.5543275707
 C          0.7123021966       -1.8257855450       -0.3473963893
 N          2.0106919131       -2.0761891696       -0.3900224397
 C          2.9185150301       -1.1197146718       -0.2063749222
 C          4.2867286386       -1.3663478061       -0.2458799587
 C          5.2219686025       -0.3548959556       -0.0559858715
 C          6.6484120991       -0.6827962897       -0.1683954426
 C          7.5202154425        0.0835605975       -0.9426759232
 C          8.8510604387       -0.2870797875       -1.0128226588
 N          9.3548200781       -1.3382189375       -0.3860786656
 C          8.5278649369       -2.0743506639        0.3383662274
 C          7.1791370073       -1.7995562257        0.4776846965
 C          4.7809223076        0.9563604437        0.1930152308
 C          5.7245324925        2.0464299146        0.4733863681
 C          5.6000296865        3.2851896778       -0.1548265318
 C          6.5077300773        4.2837126354        0.1520695200
 N          7.4930876999        4.1362245783        1.0224510683
 C          7.6042926554        2.9663903131        1.6312389606
 C          6.7571542237        1.8976331833        1.3997343213
 C          3.4184178345        1.2272640559        0.2306452774
 C          2.4639238499        0.2307748085        0.0416235774
 N          1.1566937753        0.4673662179        0.0930257231
 C          0.2639861534       -0.4981981654       -0.0889710607
 H         -7.4882870109        3.7296792604       -3.5402577887
 H         -5.0868336516        3.1601872796       -3.7202296556
 H         -4.0257736392        1.7368165581       -2.0304039705
 H         -8.8181915009        2.8211558383       -1.6475810611
 H         -9.2588277533        0.3053662495        2.1437757228
 H         -8.3381185514       -1.1398377080        3.9441349096
 H         -5.9236550615       -1.6832870029        3.9480194453
 H         -4.4626833717       -0.8261217217        2.1780244809
 H         -3.2303439788        2.4035468212        0.4820310334
 H         -0.8112192290        1.8420488600        0.3755428552
 H         -4.2056153006       -1.6529609837       -0.3559386010
 H         -3.5786536147       -3.5189147045       -0.6691915926
 H         -2.7480454286       -5.7535046368       -1.1080724402
 H         -0.3178525601       -6.1965920593       -1.2068670739
 H          1.2755423444       -4.3328620612       -0.8430256041
 H          4.6134175640       -2.3720521329       -0.4613768017
 H          7.1616294326        0.9427082430       -1.4877268757
 H          9.5557880388        0.2857899869       -1.6016109391
 H          8.9755460656       -2.9272625288        0.8324232732
 H          6.5502938628       -2.4252708108        1.0929037981
 H          4.8211538458        3.4531857215       -0.8832110842
 H          6.4484944777        5.2544611325       -0.3234313710
 H          8.4166881569        2.8864053890        2.3418618032
 H          6.8857402620        0.9697348859        1.9350329555
 H          3.0713293292        2.2268194042        0.4433205375
