73
 energy: -121.425507158217 gnorm: 0.000087807593 xtb: 6.7.1 (edcfbbe)
C           -7.01065173274444        3.11259674510870       -2.80743255285289
C           -5.67036321969802        2.77989703165975       -2.91417868551017
C           -5.06926878961277        1.97330610398806       -1.96429561501610
C           -5.79942057823927        1.48985448821591       -0.88075500267187
C           -7.16484507222759        1.81308237923661       -0.79513180009997
C           -7.75866588810695        2.62210989992482       -1.74977984707888
O           -7.96146620341870        1.34408441713989        0.21350919296164
C           -7.38680909049570        0.54202922095561        1.16150503361713
C           -8.20515880559155        0.07491518338082        2.17682665038385
C           -7.68130584305171       -0.72366987669305        3.17990939456575
C           -6.33343266492723       -1.04233049232951        3.17055271983230
C           -5.50953705085088       -0.58138147772293        2.15920974358794
C           -6.02228714865863        0.20470474518498        1.12950593238804
N           -5.22913035870570        0.68262420667072        0.09432220243291
C           -3.84488463197527        0.37196911190658        0.04503193873155
C           -2.89860324142396        1.38388452323694        0.26448595477890
C           -1.56726636333675        1.07217543802528        0.21807466252568
C           -1.13499568908282       -0.24169102369566       -0.03567970930871
C           -2.08563642944917       -1.26974329496912       -0.25395832987145
C           -3.44201665397527       -0.92120253840080       -0.21272742368023
C           -1.63212189740628       -2.61620202506790       -0.50953116793552
C           -2.50975988381598       -3.69088713826301       -0.72277221312428
C           -2.04521862922744       -4.96151502236243       -0.96341176446381
C           -0.67354011788098       -5.21655228174224       -1.00054310886761
C            0.21165662115744       -4.19017411919492       -0.79354604784126
C           -0.24329697792276       -2.88465777529753       -0.54597852069690
C            0.71479972082872       -1.84219695913915       -0.33120314364709
N            2.01675430496364       -2.09825559011013       -0.36881744363341
C            2.91908415524921       -1.13306048302640       -0.17988817659596
C            4.28930491800105       -1.37558776314218       -0.22341161031978
C            5.22146179163748       -0.36028489030211       -0.03645471724179
C            6.64844134285369       -0.68031689985491       -0.17360253272394
C            7.49554296920094        0.08386068908966       -0.97774458181949
C            8.82650392141167       -0.27898749715167       -1.08051491841036
N            9.35461907608365       -1.32088114824176       -0.45642933327120
C            8.55036890818680       -2.05491392533280        0.29742903664729
C            7.20352851121165       -1.78826290068125        0.46811803899976
C            4.77696945969363        0.94889928138135        0.22123123514002
C            5.71533681224835        2.04454555117887        0.50048263987446
C            5.57425773762880        3.28733246972829       -0.11826024123494
C            6.47384899618557        4.29304862811432        0.18775638145831
N            7.46842441271371        4.15098708511940        1.05054579050442
C            7.59510854884425        2.97739643421178        1.65089627064212
C            6.75692369903273        1.90155097468952        1.41821743498133
C            3.41312499373986        1.21308208975464        0.26674430041021
C            2.46255874366002        0.21262940824218        0.07250396125858
N            1.15315573483420        0.45451941628680        0.12195512344914
C            0.26526011297019       -0.51789471318474       -0.07323563078833
H           -7.47827786004114        3.74379094608994       -3.54616656293473
H           -5.08382764201738        3.14633538974558       -3.74217695251650
H           -4.02798666130347        1.71038243546923       -2.05991866767376
H           -8.80713173829759        2.85150400220449       -1.64570249356666
H           -9.24685076153938        0.35319401824941        2.16280414266890
H           -8.32376764803101       -1.08533331600034        3.96678578080420
H           -5.91390747950629       -1.65161319332534        3.95582068631443
H           -4.45931762830732       -0.82540525441971        2.16641715154344
H           -3.22912863042687        2.39029248806364        0.47125789759810
H           -0.81144980773037        1.82452734594147        0.38311260687056
H           -4.20250801851151       -1.66611504016880       -0.38350405792166
H           -3.57555545718014       -3.53006777176669       -0.69854367824452
H           -2.74508443815337       -5.76840928765795       -1.12349141985569
H           -0.31361964742708       -6.21675400596263       -1.19030907993112
H            1.27832271700772       -4.35537062188110       -0.81401122545025
H            4.61971118499886       -2.37951482155524       -0.44393083976526
H            7.11761144256059        0.93669082761014       -1.52054758623162
H            9.51149247372110        0.29132515506236       -1.69526536981891
H            9.01781877348117       -2.89904271587901        0.78889679745171
H            6.59535112211493       -2.41331689884992        1.10439286002194
H            4.78806291775215        3.45292196749360       -0.83932164708761
H            6.40106503982145        5.26687670169564       -0.28021482176551
H            8.41328337893630        2.90105582057162        2.35592693518553
H            6.90119905935209        0.97188287529756        1.94702320269103
H            3.06143810195458        2.21002523633065        0.48575459621154
