73
 energy: -121.470825603710 gnorm: 0.000068820938 xtb: 6.7.1 (edcfbbe)
C           -6.94135676521602        3.48517067042936       -2.50335019693809
C           -5.60778890014773        3.15249676232067       -2.63278211345277
C           -5.02885765796566        2.22777183040129       -1.77684917683515
C           -5.77177344953942        1.62837117676473       -0.76659624541463
C           -7.13305913824468        1.94576248191316       -0.66847701627092
C           -7.70599209787637        2.87000084276100       -1.52271930608681
O           -7.96381417776943        1.35285675502615        0.25333263710252
C           -7.41025441139031        0.41360010870204        1.09184000892312
C           -8.25895454448413       -0.17953491663977        2.00850485258360
C           -7.77218817170360       -1.11158373344842        2.91345656260424
C           -6.42868848215488       -1.42842353756714        2.90397907271931
C           -5.57443564835795       -0.83767256239187        1.98507843088484
C           -6.05103757576348        0.07360104696706        1.04986051764732
N           -5.21906355346622        0.68965174835157        0.10970730317042
C           -3.84115051971947        0.39205572559492        0.05999410364847
C           -2.89845612479310        1.39530291581275        0.30465771941789
C           -1.56140430984921        1.08884346832034        0.25182606854343
C           -1.12873018707141       -0.21108182166222       -0.03419469545137
C           -2.06842743994601       -1.23486546559579       -0.27343291876694
C           -3.42320735541462       -0.89691093021982       -0.22837212283861
C           -1.61399199860667       -2.58948692857518       -0.55982155142122
C           -2.50036916722052       -3.64807195243973       -0.79077129820814
C           -2.04519474639690       -4.92183265141890       -1.05665120144841
C           -0.68131734080982       -5.18865342567850       -1.09993285519431
C            0.21376952087505       -4.16870496582475       -0.87330318662089
C           -0.23369394048092       -2.87178607828089       -0.60296152471624
C            0.73392191175728       -1.82249289109610       -0.36813565074978
N            2.02020147891776       -2.11383982715392       -0.42245055969971
C            2.89977901576795       -1.12346125625439       -0.20650813435610
C            4.28257754821194       -1.38424106767034       -0.26196912951687
C            5.19712100778646       -0.38203420507813       -0.05496689551235
C            6.63368403294728       -0.68156420913826       -0.18783126512557
C            7.46059457221964        0.07998096304330       -1.01190389098700
C            8.79901928658275       -0.26179428660113       -1.10905268147814
N            9.34499750073692       -1.27574517606414       -0.45755021282577
C            8.55874397178405       -2.00625534906872        0.31653207805077
C            7.20574449699364       -1.76158790687412        0.48198301083504
C            4.75114179883440        0.93928522463052        0.23914092523252
C            5.71533174766160        2.01287223039985        0.53744577443921
C            5.62828780212319        3.25005595060516       -0.09829632336511
C            6.55107973036999        4.23082142735316        0.22492154295631
N            7.51269816892622        4.06439294834167        1.11858964604090
C            7.58546997844276        2.89622487538184        1.73568515609746
C            6.72195287649243        1.84268742816896        1.48635210551191
C            3.40770164586088        1.21457358171697        0.28930923498106
C            2.45359447171508        0.20181556742366        0.06952799248064
N            1.14443827189283        0.48852162120431        0.12652772841722
C            0.28619783492086       -0.49378512390420       -0.08468119705269
H           -7.39621776684902        4.20724235350406       -3.16300963882553
H           -5.00397668899101        3.60578636401863       -3.40396444659512
H           -3.98994137858015        1.96583706853727       -1.90030351282454
H           -8.75561808362369        3.09018282495633       -1.40651792902115
H           -9.29856246153236        0.10842628920020        2.00140862181886
H           -8.44248519820484       -1.57074079409087        3.62284716705787
H           -6.02900618565258       -2.13599485312132        3.61418241605265
H           -4.52416511478817       -1.08209818136294        2.00399710024301
H           -3.22945606517923        2.39596336586207        0.53790284808449
H           -0.81071501405697        1.84034403721560        0.43884810786103
H           -4.18112417563316       -1.63770399924161       -0.42494166396507
H           -3.56479510903373       -3.48134946551844       -0.76207668443387
H           -2.75523443256575       -5.71677615247935       -1.23070601864976
H           -0.32877801995198       -6.18740208051899       -1.30852177678427
H            1.27866921254489       -4.33961786042838       -0.89722488634208
H            4.60234998398221       -2.38796249570722       -0.49848284550679
H            7.06535997054792        0.91219747777428       -1.57356482663145
H            9.47264258070439        0.30533282756231       -1.73856952808796
H            9.04311270746534       -2.82795126628684        0.82845159324621
H            6.60828672036950       -2.38177742413189        1.13262373969218
H            4.86732394609501        3.43159488191396       -0.84193230195079
H            6.52347522766494        5.20132565736999       -0.25388321036082
H            8.37980664713761        2.80237953870269        2.46499695553417
H            6.82101331214067        0.91361269932477        2.02605047069846
H            3.05221062972326        2.20680272324082        0.52343463555636
