73
 energy: -121.425534516011 gnorm: 0.000068939932 xtb: 6.7.1 (edcfbbe)
C           -6.93209366622945        3.34399780523906       -2.61417317660070
C           -5.59420253050711        3.00254519768351       -2.72335517450370
C           -5.01900763166903        2.11988323631920       -1.82657262212237
C           -5.77273478619820        1.56699464091333       -0.79334934386056
C           -7.13613338288086        1.89868996326346       -0.70858715699596
C           -7.70399699220352        2.78464051942272       -1.60932209171071
O           -7.95710207817945        1.36245581702959        0.24532381975178
C           -7.41052963260237        0.47913309664221        1.13577234107163
C           -8.25527933566989       -0.05798739216874        2.09328012766063
C           -7.76158013939427       -0.94064195917963        3.03949748544885
C           -6.41690071093998       -1.27255543792452        3.03281741474781
C           -5.56675486528968       -0.74131090030926        2.07933344031774
C           -6.04886326473290        0.13017952302593        1.10499257563543
N           -5.22882083548583        0.68187645580004        0.12857230768091
C           -3.84598081246094        0.36727786026602        0.08321819099985
C           -2.89917571909318        1.36275777603626        0.36763739901500
C           -1.56803400793730        1.05217046136883        0.31197765884097
C           -1.13566168045438       -0.24646444556979       -0.01071140010676
C           -2.08671176717838       -1.26089207112453       -0.28435001985842
C           -3.44273296905811       -0.91161037547991       -0.23820414890493
C           -1.63378030193345       -2.59448256113518       -0.60118468886792
C           -2.51159605247278       -3.65828122950448       -0.86283595596102
C           -2.04721725673946       -4.91697548395573       -1.16004800660553
C           -0.67557325495746       -5.17041062041560       -1.20851197041217
C            0.20975858181359       -4.15473486892181       -0.95469475496086
C           -0.24508977520315       -2.86178164594476       -0.64819546832521
C            0.71334463849555       -1.83067631363555       -0.38589076403664
N            2.01510946336085       -2.08485760541854       -0.43870882606918
C            2.91805317080177       -1.12856934698972       -0.21151826138624
C            4.28798383345835       -1.36887838423706       -0.27027573321830
C            5.22126640152324       -0.36185035435739       -0.04679769823290
C            6.64726227928297       -0.67845209124425       -0.20026354229300
C            7.49554205290271        0.11640705466820       -0.97278220973364
C            8.82499897629109       -0.24634241229272       -1.09367526829754
N            9.35030503065925       -1.31702547997705       -0.51769754035120
C            8.54487443628126       -2.07986292291344        0.20572704485633
C            7.19989052349510       -1.81478053854497        0.39229129878470
C            4.77761670377734        0.93629946024999        0.26279219155047
C            5.71638055577736        2.02225363516975        0.57638666429911
C            5.57037168807595        3.28589787367634        0.00265215625767
C            6.47030288265743        4.28146446262340        0.33921909082560
N            7.46968514004069        4.11033426142595        1.19113645968699
C            7.60135419665098        2.91629040711424        1.74858695962136
C            6.76304437750585        1.84818713009320        1.48281325963934
C            3.41387779902377        1.19751814290717        0.32697258170396
C            2.46232750394336        0.20506094688631        0.09948186097575
N            1.15316679938896        0.44333878260311        0.16871987049477
C            0.26451311916516       -0.51994875919440       -0.06511240828860
H           -7.37926007845360        4.03491674271563       -3.31091071377057
H           -4.98944815960592        3.42122934256113       -3.51259343402758
H           -3.97951227004154        1.85157336707201       -1.92586358569934
H           -8.75175133064759        3.01765937941966       -1.50607940021993
H           -9.29353042737674        0.23294930881322        2.07968726967826
H           -8.42463094789519       -1.35708516189693        3.78088056549870
H           -6.02040101263692       -1.94821929443107        3.77451724829601
H           -4.51933089047214       -0.99675177818201        2.09004105718298
H           -3.22921668654592        2.35669555697599        0.62853977760236
H           -0.81253221274087        1.79356679138500        0.52183072619747
H           -4.20245318484746       -1.64408134915163       -0.45901123535482
H           -3.57739454167125       -3.49873502508800       -0.83085122859631
H           -2.74716796920472       -5.71575291686791       -1.35636608152682
H           -0.31573273344184       -6.16103397429260       -1.44336104117693
H            1.27644485825139       -4.31888175374055       -0.98194904654807
H            4.61707266386567       -2.36314462739134       -0.53256822422036
H            7.11970542754282        0.99292818571874       -1.47795348517467
H            9.51092184269021        0.34778186340637       -1.68435996174936
H            9.00951600301683       -2.94713248973173        0.65803117261011
H            6.59090404827968       -2.46406593456062        1.00302660754103
H            4.77995620176723        3.47554522429496       -0.70777764602933
H            6.39365201159833        5.27111502903290       -0.09362336719560
H            8.42356206804281        2.81621689387957        2.44590633591483
H            6.91094472641867        0.90038795965187        1.97739972393374
H            3.06321359775218        2.18499927643809        0.58676321184116
