  86
  -133.068516860000       0.298193425584456      !
 O          3.8367976192        3.7511929535       -0.8000820592
 C          3.6390300205        2.6476508307       -0.3177154913
 C          4.7474113915        1.7056428912       -0.0365331014
 C          6.0524835225        2.1959685960       -0.0407247549
 C          7.1161004022        1.3667840956        0.2469550487
 C          6.8818939506        0.0304332652        0.5351859275
 C          5.5922422602       -0.4685160124        0.5300380304
 C          4.5125863084        0.3615793363        0.2561582711
 C          3.1202983332       -0.2072895034        0.1724439250
 C          2.0547392939        0.8389537422        0.3773997821
 C          0.7959525888        0.4559467315        0.7940549242
 C         -0.2282948395        1.3875346969        0.9831807002
 N         -1.4581008820        0.9779058670        1.4516441662
 C         -2.6122064977        1.7881184569        1.3852586402
 C         -2.7211092770        2.9667234737        2.1090736771
 C         -3.8861549631        3.7097246063        2.0342123556
 C         -4.9408302780        3.2703304142        1.2529946988
 C         -4.8443204579        2.0773321978        0.5547892994
 C         -3.6862644173        1.3219686347        0.6226776263
 C         -3.4501348429        0.0133447159       -0.1145673486
 C         -4.7313351515       -0.5421587809       -0.6948482887
 C         -4.8991721969       -0.7476872081       -2.0565004433
 C         -6.0918516812       -1.2521723692       -2.5483873595
 C         -7.1302839768       -1.5571618569       -1.6871552288
 C         -6.9718960022       -1.3537358001       -0.3258243940
 C         -5.7828538681       -0.8493011312        0.1656289942
 C         -2.3805332208        0.2571168852       -1.1800429925
 C         -1.5108545277       -0.7642830299       -1.5444538662
 C         -0.4966863148       -0.5347780534       -2.4553728819
 C         -0.3362008812        0.7197327049       -3.0166443077
 C         -1.2157546347        1.7339398390       -2.6834563031
 C         -2.2347534219        1.5032071138       -1.7762173882
 C         -2.8329456117       -0.9202103325        0.9165252269
 C         -3.1896297556       -2.2432159228        1.1142764264
 C         -2.5067629243       -3.0190147599        2.0372066038
 C         -1.4679554112       -2.4768857296        2.7743044851
 C         -1.1042986021       -1.1550044946        2.5913841345
 C         -1.7732824223       -0.3835703747        1.6510598199
 C          0.0188792005        2.7226910635        0.6341272660
 C          1.2609872787        3.0987924521        0.1882656002
 C          2.3087772072        2.1806408111        0.0817353390
 C          2.9021226443       -1.4049529825        1.0673427790
 C          2.9278649862       -1.4550252107        2.4445617302
 C          2.6520657082       -2.6637176233        3.0697944630
 C          2.3551193592       -3.7957960878        2.3260080927
 C          2.3329865431       -3.7516164112        0.9411475613
 C          2.6091519925       -2.5492140159        0.3114335007
 C          2.6618129707       -2.1953866756       -1.0985156716
 C          2.4986872893       -2.9648116428       -2.2389945709
 C          2.6366480280       -2.3555089196       -3.4764105358
 C          2.9269667056       -1.0027795739       -3.5757292333
 C          3.0864314999       -0.2243267025       -2.4368230455
 C          2.9541499250       -0.8294983689       -1.2074556624
 H          6.2002493805        3.2399557289       -0.2749364912
 H          8.1242759311        1.7534455580        0.2449664069
 H          7.7085710476       -0.6274913258        0.7602210974
 H          5.4189503670       -1.5135531338        0.7433007534
 H          0.5982264010       -0.5899455440        0.9653386367
 H         -1.9011162413        3.2907798723        2.7320089234
 H         -3.9705141462        4.6307603464        2.5910737267
 H         -5.8456419913        3.8553775705        1.1877419138
 H         -5.6705758218        1.7426446999       -0.0543837751
 H         -4.0967518867       -0.5127211759       -2.7398712702
 H         -6.2075517354       -1.4059893077       -3.6111598728
 H         -8.0594686239       -1.9499579894       -2.0725216884
 H         -7.7774144828       -1.5881514332        0.3548795379
 H         -5.6630937096       -0.6894124967        1.2281656642
 H         -1.6216105238       -1.7465917922       -1.1081442255
 H          0.1747580813       -1.3369612974       -2.7208952377
 H          0.4678498435        0.9015788338       -3.7132114456
 H         -1.1072356234        2.7131157143       -3.1256538839
 H         -2.9160534077        2.3034229286       -1.5251519659
 H         -3.9906130973       -2.6773931044        0.5345741195
 H         -2.7875946572       -4.0519967120        2.1770002412
 H         -0.9389817934       -3.0812149944        3.4954133553
 H         -0.3041966152       -0.7196782223        3.1709230000
 H         -0.7703095016        3.4545708321        0.6937965992
 H          1.4606569871        4.1254344657       -0.0806243484
 H          3.1558486897       -0.5713118330        3.0228702694
 H          2.6679291411       -2.7224415677        4.1482994585
 H          2.1403042823       -4.7249572938        2.8336536563
 H          2.1023552894       -4.6362553380        0.3664476482
 H          2.2741913134       -4.0187695284       -2.1666746339
 H          2.5180683764       -2.9419447754       -4.3760849911
 H          3.0334296713       -0.5508184174       -4.5508524364
 H          3.3144715874        0.8289261912       -2.5140934273
  86
  -133.068418760000       0.268790815929128      !
 O          3.8294646831        3.8025214407       -0.7148892893
 C          3.6408662617        2.6767929839       -0.2815165108
 C          4.7562079753        1.7252839276       -0.0690037329
 C          6.0617665767        2.2131101679       -0.1218750154
 C          7.1355799153        1.3765703124        0.0967929586
 C          6.9122827094        0.0341628381        0.3659361835
 C          5.6225738010       -0.4616323202        0.4106966211
 C          4.5328356609        0.3754655144        0.2041618988
 C          3.1423472642       -0.1995137597        0.1816854398
 C          2.0709471260        0.8424562166        0.3810878865
 C          0.8116672995        0.4409184741        0.7794550652
 C         -0.2210108450        1.3586372760        0.9846596703
 N         -1.4494208357        0.9279598387        1.4373329999
 C         -2.6050600289        1.7375718318        1.4064199101
 C         -2.7108745100        2.8891627878        2.1730937154
 C         -3.8783361089        3.6310034496        2.1346048761
 C         -4.9381604309        3.2172318223        1.3463088107
 C         -4.8436286737        2.0516450479        0.6031976910
 C         -3.6830344471        1.2976061400        0.6341523532
 C         -3.4497690406        0.0193041322       -0.1548156403
 C         -4.7363585103       -0.5165120411       -0.7419241862
 C         -4.9241623350       -0.6587506542       -2.1088743806
 C         -6.1228169502       -1.1441516706       -2.6056090999
 C         -7.1471830164       -1.4925704599       -1.7440312556
 C         -6.9688383701       -1.3519670885       -0.3773143026
 C         -5.7738983484       -0.8667354869        0.1189406998
 C         -2.3907500024        0.3036055136       -1.2206199090
 C         -1.5422879029       -0.7116029329       -1.6467467187
 C         -0.5351530438       -0.4526584456       -2.5573381316
 C         -0.3588853819        0.8263903634       -3.0550566030
 C         -1.2177862005        1.8361821610       -2.6604209515
 C         -2.2312051777        1.5757246961       -1.7548749858
 C         -2.8191596762       -0.9526406660        0.8317970326
 C         -3.1642046263       -2.2863506472        0.9708145675
 C         -2.4712975203       -3.0976636350        1.8547549981
 C         -1.4363396189       -2.5798131488        2.6144344962
 C         -1.0842088278       -1.2481082230        2.4901623202
 C         -1.7596283502       -0.4414891712        1.5841979955
 C          0.0189122721        2.7037966611        0.6691098950
 C          1.2597003334        3.0980979683        0.2361289623
 C          2.3162166849        2.1908748882        0.1129535444
 C          2.9510423471       -1.3541000891        1.1389021755
 C          3.0329525383       -1.3408802816        2.5144586307
 C          2.7604022207       -2.5138235524        3.2060255869
 C          2.4085612221       -3.6715740091        2.5284329503
 C          2.3290642793       -3.6905057459        1.1449836582
 C          2.6044970915       -2.5250119349        0.4490592858
 C          2.6084241214       -2.2367943465       -0.9769908983
 C          2.3879659695       -3.0536295275       -2.0737686082
 C          2.4988463866       -2.5058906467       -3.3422005959
 C          2.8186278166       -1.1671779773       -3.5149218967
 C          3.0315164701       -0.3401002871       -2.4198132000
 C          2.9257744049       -0.8843616299       -1.1598715123
 H          6.2007472011        3.2619919697       -0.3383418144
 H          8.1434020827        1.7620477792        0.0564445056
 H          7.7469833319       -0.6298667411        0.5370794605
 H          5.4552057187       -1.5105401035        0.6098281296
 H          0.6222335555       -0.6102516741        0.9248895804
 H         -1.8861606078        3.1924376801        2.8002120937
 H         -3.9604214375        4.5307427807        2.7253807050
 H         -5.8454240731        3.8010621380        1.3102166364
 H         -5.6736537002        1.7376365661       -0.0117022649
 H         -4.1330040058       -0.3888429968       -2.7925674871
 H         -6.2543311117       -1.2482650554       -3.6726690263
 H         -8.0809636036       -1.8704825852       -2.1333229129
 H         -7.7637071051       -1.6197566233        0.3035801954
 H         -5.6388427190       -0.7542359828        1.1857724265
 H         -1.6647929547       -1.7128083090       -1.2595138037
 H          0.1188777157       -1.2516123857       -2.8711367352
 H          0.4407556013        1.0314127230       -3.7503111291
 H         -1.0971462316        2.8350812071       -3.0526426786
 H         -2.8964598933        2.3731169992       -1.4562986525
 H         -3.9638999113       -2.7003264579        0.3747556367
 H         -2.7417171888       -4.1387428902        1.9470081671
 H         -0.9003188803       -3.2107611530        3.3070270453
 H         -0.2872477618       -0.8329337337        3.0885676937
 H         -0.7755000563        3.4288694866        0.7432900955
 H          1.4525719919        4.1317721900       -0.0105829116
 H          3.3009192852       -0.4364720397        3.0412036797
 H          2.8204307609       -2.5235518736        4.2845394841
 H          2.1957242648       -4.5713580100        3.0873695178
 H          2.0546798019       -4.5947178473        0.6223217503
 H          2.1417556721       -4.0971149524       -1.9446151942
 H          2.3356731993       -3.1299105495       -4.2091265615
 H          2.9030473627       -0.7641019483       -4.5133156377
 H          3.2801094130        0.7027695289       -2.5524450541
  86
  -133.068142000000       0.200550771035806      !
 O          3.8077435919        3.8448487980       -0.6314713365
 C          3.6287171574        2.6982526696       -0.2515682897
 C          4.7496738778        1.7397453231       -0.1152775394
 C          6.0525723277        2.2269912850       -0.2236023451
 C          7.1345217836        1.3843447579       -0.0845553873
 C          6.9229902901        0.0354646472        0.1622416623
 C          5.6364872734       -0.4589519224        0.2644685128
 C          4.5385963168        0.3839594865        0.1354132679
 C          3.1523537592       -0.1983515403        0.1820006215
 C          2.0746299095        0.8374923781        0.3788085679
 C          0.8168796974        0.4185094890        0.7656334100
 C         -0.2222840455        1.3234171503        0.9911958807
 N         -1.4492266372        0.8751696605        1.4302470534
 C         -2.6046727829        1.6856031287        1.4365082042
 C         -2.7055475916        2.8067912642        2.2476247376
 C         -3.8739299240        3.5481694375        2.2463446024
 C         -4.9392511003        3.1638387224        1.4505493933
 C         -4.8487635048        2.0288682345        0.6608671676
 C         -3.6871765442        1.2758789279        0.6539438670
 C         -3.4551713014        0.0321988844       -0.1887696880
 C         -4.7413775811       -0.4802463631       -0.7973518922
 C         -4.9273667723       -0.5684581834       -2.1692251622
 C         -6.1243964902       -1.0357180474       -2.6866154506
 C         -7.1493627781       -1.4195294199       -1.8410084762
 C         -6.9732586876       -1.3323557523       -0.4695358301
 C         -5.7796487935       -0.8656527218        0.0474366443
 C         -2.3996122407        0.3634466289       -1.2443080879
 C         -1.5514165350       -0.6314541677       -1.7161790658
 C         -0.5501207510       -0.3330281248       -2.6209996157
 C         -0.3782512941        0.9661137677       -3.0655108216
 C         -1.2366436095        1.9571250673       -2.6246536323
 C         -2.2453281583        1.6570531255       -1.7261685040
 C         -2.8215647146       -0.9792143406        0.7554674501
 C         -3.1676468171       -2.3169673424        0.8428344863
 C         -2.4738726147       -3.1627820171        1.6931918372
 C         -1.4376971943       -2.6757666356        2.4713121411
 C         -1.0844558925       -1.3404492831        2.3988080469
 C         -1.7599632902       -0.4987981487        1.5253533378
 C          0.0102823249        2.6779855999        0.7108787319
 C          1.2481096230        3.0898509074        0.2869092919
 C          2.3109427905        2.1926443716        0.1403051891
 C          3.0039317255       -1.3046152397        1.2037323117
 C          3.1354716434       -1.2200156051        2.5725462004
 C          2.8968658236       -2.3576289897        3.3324882196
 C          2.5284199632       -3.5501116150        2.7282526041
 C          2.3971672058       -3.6400881461        1.3514883904
 C          2.6385843200       -2.5103231193        0.5874939243
 C          2.5902550767       -2.2952188073       -0.8506700454
 C          2.3350458685       -3.1676908677       -1.8957086479
 C          2.4059538890       -2.6869496996       -3.1936526910
 C          2.7202882616       -1.3594589431       -3.4459471188
 C          2.9649635806       -0.4759738620       -2.4025738108
 C          2.8971821449       -0.9533127547       -1.1131858007
 H          6.1819257876        3.2808134490       -0.4216631838
 H          8.1395862595        1.7693959364       -0.1712966054
 H          7.7640445180       -0.6337598128        0.2701305375
 H          5.4764534426       -1.5119903047        0.4478303536
 H          0.6356987158       -0.6372233802        0.8863496475
 H         -1.8760206074        3.0867054778        2.8792948321
 H         -3.9526746295        4.4241276649        2.8723857105
 H         -5.8473512305        3.7474185510        1.4440891188
 H         -5.6825747815        1.7386368344        0.0393762938
 H         -4.1359928792       -0.2705100540       -2.8407988454
 H         -6.2542544925       -1.0972861668       -3.7571949094
 H         -8.0821950572       -1.7824139112       -2.2464603683
 H         -7.7687031263       -1.6278995688        0.1990100191
 H         -5.6457477944       -0.7970433330        1.1180784839
 H         -1.6698867321       -1.6481714974       -1.3702575059
 H          0.1027511218       -1.1177412312       -2.9712250292
 H          0.4171881962        1.2020986790       -3.7559457342
 H         -1.1192392353        2.9718861049       -2.9748649461
 H         -2.9104075150        2.4399657149       -1.3912757735
 H         -3.9690157479       -2.7066429733        0.2327995072
 H         -2.7450876704       -4.2064628797        1.7451176522
 H         -0.9014350948       -3.3334481539        3.1384452226
 H         -0.2874706148       -0.9498180656        3.0136121187
 H         -0.7881871939        3.3963113880        0.8049729958
 H          1.4345953529        4.1300525819        0.0646053684
 H          3.4155752398       -0.2883241478        3.0423294145
 H          2.9961297521       -2.3118802805        4.4071248865
 H          2.3437479644       -4.4212963990        3.3400569598
 H          2.1098133439       -4.5710794831        0.8859566862
 H          2.0946990769       -4.2031174181       -1.7047199428
 H          2.2160048099       -3.3552257801       -4.0212457605
 H          2.7748664956       -1.0092267494       -4.4662557167
 H          3.2082286554        0.5584847447       -2.5965745366
  86
  -133.067854830000       0.147996055913892      !
 O          3.7926347273        3.8619747050       -0.5928118342
 C          3.6223401849        2.7045943864       -0.2423983800
 C          4.7478523948        1.7458356055       -0.1542928258
 C          6.0458005441        2.2366544171       -0.3020800202
 C          7.1334918518        1.3952765390       -0.2092532266
 C          6.9333860495        0.0433349326        0.0309993111
 C          5.6521355223       -0.4545315945        0.1722020748
 C          4.5484719473        0.3869609182        0.0880637478
 C          3.1692497949       -0.2039157925        0.1860528036
 C          2.0837091684        0.8258118792        0.3738240739
 C          0.8276264745        0.3928381541        0.7512906728
 C         -0.2185166092        1.2865312251        0.9866145423
 N         -1.4440814790        0.8242793171        1.4144432019
 C         -2.5981469909        1.6351537244        1.4566412361
 C         -2.6900327228        2.7289934663        2.3053457795
 C         -3.8583141688        3.4695624129        2.3412512179
 C         -4.9322463327        3.1113830691        1.5447494480
 C         -4.8496585367        2.0044074348        0.7154383297
 C         -3.6880738268        1.2526997758        0.6707377018
 C         -3.4609168257        0.0430555703       -0.2218845024
 C         -4.7507206521       -0.4505155191       -0.8384306854
 C         -4.9449787296       -0.4978735314       -2.2111070012
 C         -6.1445164212       -0.9515805474       -2.7348262057
 C         -7.1635343394       -1.3624688148       -1.8947890610
 C         -6.9787214391       -1.3170757658       -0.5224242853
 C         -5.7825565911       -0.8643440941        0.0008318536
 C         -2.4183345524        0.4261074937       -1.2726836215
 C         -1.5472246280       -0.5325525201       -1.7760985040
 C         -0.5594235202       -0.1825610321       -2.6777376515
 C         -0.4243791015        1.1322781809       -3.0871529573
 C         -1.3060968654        2.0877964034       -2.6145841280
 C         -2.3007443732        1.7363372761       -1.7194531585
 C         -2.8183747727       -1.0036466887        0.6763539760
 C         -3.1625683462       -2.3442724645        0.7121976702
 C         -2.4670962831       -3.2213941702        1.5287471132
 C         -1.4328531177       -2.7627669550        2.3264060217
 C         -1.0809889075       -1.4251889285        2.3048879783
 C         -1.7557892509       -0.5520820310        1.4622590738
 C          0.0061241861        2.6469493313        0.7280300428
 C          1.2411074203        3.0726079169        0.3099595297
 C          2.3106436928        2.1848924032        0.1511214544
 C          3.0543887032       -1.2644232962        1.2607985312
 C          3.2242979913       -1.1179186506        2.6199221772
 C          3.0076799205       -2.2199941122        3.4367809737
 C          2.6220956533       -3.4381184892        2.8977937727
 C          2.4520073660       -3.5900917958        1.5307144315
 C          2.6723739616       -2.4963670856        0.7100440003
 C          2.5833324427       -2.3461860256       -0.7344086575
 C          2.2959720960       -3.2639832456       -1.7309966787
 C          2.3300694723       -2.8425218566       -3.0507701309
 C          2.6410234568       -1.5292517691       -3.3715242655
 C          2.9174299482       -0.6000708694       -2.3765300307
 C          2.8845074864       -1.0179444940       -1.0654476095
 H          6.1662824258        3.2932304774       -0.4911485368
 H          8.1343349529        1.7839762049       -0.3243010221
 H          7.7790246084       -0.6247558713        0.1043356663
 H          5.4997669064       -1.5095376741        0.3509982664
 H          0.6553659037       -0.6657973514        0.8581395910
 H         -1.8528743722        2.9888080969        2.9355688503
 H         -3.9301021866        4.3245834662        2.9963808368
 H         -5.8406537232        3.6940502222        1.5680761653
 H         -5.6896170750        1.7356017990        0.0925511818
 H         -4.1578202032       -0.1794647705       -2.8782416648
 H         -6.2806358469       -0.9823384587       -3.8059691752
 H         -8.0980407540       -1.7154431700       -2.3051532045
 H         -7.7693683730       -1.6343300121        0.1418557402
 H         -5.6421253685       -0.8272208098        1.0722435185
 H         -1.6357940087       -1.5612335477       -1.4578683956
 H          0.1118177466       -0.9401630933       -3.0521159579
 H          0.3602241424        1.4089040552       -3.7749863336
 H         -1.2182483964        3.1143746789       -2.9381173944
 H         -2.9850265513        2.4914495979       -1.3601504044
 H         -3.9641818567       -2.7110327603        0.0884501290
 H         -2.7366056884       -4.2667635937        1.5400218828
 H         -0.8970898004       -3.4442019091        2.9697461962
 H         -0.2863150027       -1.0575711198        2.9367263065
 H         -0.7970947784        3.3585462808        0.8332407766
 H          1.4206437732        4.1169575995        0.1018907686
 H          3.5172078756       -0.1662995511        3.0391807781
 H          3.1372578489       -2.1258714495        4.5050003497
 H          2.4537120055       -4.2800289269        3.5536656641
 H          2.1507199141       -4.5403901045        1.1157149258
 H          2.0590694664       -4.2888666600       -1.4864629313
 H          2.1145839753       -3.5466308341       -3.8415284986
 H          2.6681975094       -1.2253933278       -4.4078545167
 H          3.1560232028        0.4239189480       -2.6241726829
  86
  -133.067095980000       6.629897710132261E-002 !
 O          3.8008843431        3.9067664788       -0.3658851712
 C          3.6317202089        2.7163083019       -0.1505502304
 C          4.7507750261        1.7489984578       -0.2292843079
 C          6.0329336164        2.2447457473       -0.4727740879
 C          7.1170628726        1.3971720345       -0.5445979809
 C          6.9305144864        0.0323751065       -0.3748368068
 C          5.6657181082       -0.4697750916       -0.1372551741
 C          4.5653442397        0.3775032653       -0.0590787857
 C          3.2109769729       -0.2243361573        0.1824344679
 C          2.1110793229        0.7923579250        0.3680928834
 C          0.8563039365        0.3283073001        0.7126295538
 C         -0.2035248507        1.1963173589        0.9762818485
 N         -1.4297630898        0.7010094152        1.3612225206
 C         -2.5810411807        1.5062563418        1.4853754159
 C         -2.6560218346        2.5274238010        2.4219553418
 C         -3.8246225147        3.2577990135        2.5438422948
 C         -4.9146972628        2.9619919637        1.7435047820
 C         -4.8466786601        1.9295563091        0.8218155309
 C         -3.6852875429        1.1875579771        0.6912943813
 C         -3.4666328434        0.0648276392       -0.3117767450
 C         -4.7606366995       -0.3851618426       -0.9532936942
 C         -4.9541625115       -0.3616732321       -2.3267648047
 C         -6.1543966129       -0.7848189745       -2.8739381695
 C         -7.1750417837       -1.2360518583       -2.0569147306
 C         -6.9894567108       -1.2658287688       -0.6842429211
 C         -5.7918880652       -0.8452584787       -0.1377082951
 C         -2.4533730859        0.5711609388       -1.3383063233
 C         -1.5083704244       -0.2848800069       -1.8892331827
 C         -0.5620512420        0.1914925052       -2.7783064447
 C         -0.5444232281        1.5295891585       -3.1286747931
 C         -1.4986898269        2.3841067385       -2.6052388547
 C         -2.4491827272        1.9074869115       -1.7210084251
 C         -2.8092488343       -1.0556191906        0.4789966587
 C         -3.1569405177       -2.3936198277        0.4023949677
 C         -2.4645783770       -3.3377273280        1.1432859873
 C         -1.4328758762       -2.9491926729        1.9803363618
 C         -1.0763533566       -1.6155303585        2.0700863128
 C         -1.7445056540       -0.6740610933        1.2987595661
 C          0.0092304731        2.5707161085        0.7890151176
 C          1.2441726522        3.0292276423        0.4083508916
 C          2.3262787062        2.1622783062        0.2151967813
 C          3.1987309602       -1.1556822813        1.3799221047
 C          3.5042940048       -0.8596818622        2.6896784054
 C          3.3624549441       -1.8591307859        3.6435977966
 C          2.9150572128       -3.1225239408        3.2874826372
 C          2.6072707181       -3.4237346527        1.9701535731
 C          2.7536685105       -2.4337621512        1.0127177270
 C          2.5263189318       -2.4469912182       -0.4243216281
 C          2.1094268729       -3.4590090152       -1.2725464788
 C          2.0222920233       -3.1925620280       -2.6296960723
 C          2.3484730201       -1.9418919346       -3.1319593997
 C          2.7479430858       -0.9158382970       -2.2843780198
 C          2.8274147488       -1.1762793790       -0.9351723070
 H          6.1436109780        3.3116201602       -0.5999902588
 H          8.1051809234        1.7910878584       -0.7304263424
 H          7.7739471351       -0.6404412741       -0.4276467269
 H          5.5217608815       -1.5332797662       -0.0075639511
 H          0.6979322424       -0.7360715966        0.7701529870
 H         -1.8047386188        2.7380599315        3.0516448079
 H         -3.8842140954        4.0555019436        3.2687508331
 H         -5.8239135881        3.5367004399        1.8346694391
 H         -5.6983794463        1.7126644558        0.1945389028
 H         -4.1657330511       -0.0124100176       -2.9766815271
 H         -6.2898954468       -0.7593469356       -3.9453093068
 H         -8.1113287505       -1.5618132021       -2.4853096397
 H         -7.7806672903       -1.6165327647       -0.0377196922
 H         -5.6488281277       -0.8729086528        0.9336274809
 H         -1.5042621972       -1.3316504076       -1.6213578096
 H          0.1670004946       -0.4895405651       -3.1894991978
 H          0.2045937796        1.9038748502       -3.8102173604
 H         -1.5025298258        3.4279110474       -2.8822068894
 H         -3.1923057787        2.5826199597       -1.3217073259
 H         -3.9603891111       -2.7044065905       -0.2486084111
 H         -2.7375821988       -4.3795171399        1.0679905905
 H         -0.9041743025       -3.6823982487        2.5704721840
 H         -0.2868073863       -1.3041384608        2.7377181426
 H         -0.8038223394        3.2669261177        0.9200571097
 H          1.4150919163        4.0845222090        0.2556871060
 H          3.8475647444        0.1264351876        2.9666950575
 H          3.6010199601       -1.6486976897        4.6757293055
 H          2.8056514230       -3.8815659300        4.0485003139
 H          2.2571778351       -4.4082076928        1.6970742266
 H          1.8647096853       -4.4375125914       -0.8866707381
 H          1.7047662547       -3.9717296279       -3.3073852830
 H          2.2907409910       -1.7635472333       -4.1962190408
 H          2.9898458767        0.0627663003       -2.6727357312
  86
  -133.065872760000       1.816995443539652E-002 !
 O          3.4968192990        3.8205127669       -0.2918782240
 C          3.2861976618        2.6361936455       -0.0827014810
 C          4.2170472523        1.8089549629        0.7210432423
 C          5.2152035996        2.4564276317        1.4488067032
 C          6.0931194304        1.7393578492        2.2338646033
 C          5.9844031134        0.3576441219        2.2938362803
 C          5.0047134903       -0.2953716832        1.5690173195
 C          4.1072341065        0.4189902157        0.7847601064
 C          3.0965804241       -0.3126251585       -0.0541188288
 C          1.9424370545        0.5624836194       -0.4742116223
 C          0.7577430313       -0.0297504308       -0.8592150338
 C         -0.3283574961        0.7233798056       -1.3069673162
 N         -1.5363447878        0.1053070736       -1.5740104784
 C         -2.7024572241        0.8524087348       -1.8520150378
 C         -2.8478569810        1.5242983158       -3.0570786611
 C         -4.0223864789        2.2050197431       -3.3224188279
 C         -5.0488044234        2.2034398543       -2.3933037732
 C         -4.9053696442        1.5276487679       -1.1924260092
 C         -3.7344065186        0.8431880271       -0.9120587637
 C         -3.4254293666        0.1472628583        0.4071223987
 C         -2.3975092217        1.0336831579        1.1116742968
 C         -2.5703728248        2.4141760524        1.1045512189
 C         -1.6268089717        3.2483474209        1.6738531002
 C         -0.4944115633        2.7151850336        2.2647195162
 C         -0.3307827724        1.3429663034        2.3029581224
 C         -1.2743408662        0.5049529959        1.7338053402
 C         -4.6711145948       -0.0672739462        1.2399143928
 C         -4.7863247548        0.4005124927        2.5405970635
 C         -5.9425500151        0.1713850093        3.2685816761
 C         -6.9951317029       -0.5286773975        2.7075343810
 C         -6.8854684112       -1.0061275200        1.4115035554
 C         -5.7322197959       -0.7789177480        0.6851253218
 C         -2.7847902495       -1.1796946155        0.0367852142
 C         -3.0641750462       -2.3860850886        0.6582170624
 C         -2.4195343556       -3.5446443220        0.2575539750
 C         -1.5121171143       -3.5136677509       -0.7868872399
 C         -1.2239606225       -2.3165012228       -1.4176725589
 C         -1.8324111920       -1.1475280277       -0.9829875237
 C         -0.1737542737        2.1117340352       -1.4172094193
 C          1.0082995264        2.7009988199       -1.0443893596
 C          2.0799188149        1.9501326849       -0.5520330073
 C          2.6136321876       -1.6095353403        0.5553375879
 C          1.9174992297       -1.7953923348        1.7298943864
 C          1.5001322189       -3.0770107398        2.0623461833
 C          1.7818843798       -4.1519248266        1.2333279939
 C          2.4948160487       -3.9743697738        0.0584648539
 C          2.9101800381       -2.6969502637       -0.2796992341
 C          3.6436605237       -2.2048634549       -1.4351337820
 C          4.1819197137       -2.8698813002       -2.5243716730
 C          4.8471958414       -2.1316807688       -3.4899722944
 C          4.9717578026       -0.7554864820       -3.3735499481
 C          4.4328765126       -0.0817208796       -2.2853018946
 C          3.7746930724       -0.8144762196       -1.3235155885
 H          5.2754316557        3.5325268278        1.3762853350
 H          6.8626714229        2.2484882507        2.7947924534
 H          6.6684544898       -0.2134007119        2.9044994263
 H          4.9319590392       -1.3729046991        1.6102433697
 H          0.6630204893       -1.0986314208       -0.7702297284
 H         -2.0399339218        1.5100490427       -3.7731501204
 H         -4.1368989400        2.7340260851       -4.2564290239
 H         -5.9646583595        2.7367203623       -2.5988777808
 H         -5.7047571911        1.5479622102       -0.4664497277
 H         -3.4495487281        2.8401466329        0.6431221348
 H         -1.7735591158        4.3179706492        1.6491184140
 H          0.2534482525        3.3639473552        2.6949715379
 H          0.5438557796        0.9230591069        2.7768333012
 H         -1.1256322548       -0.5648010126        1.7675229944
 H         -3.9712857011        0.9466428490        2.9917386816
 H         -6.0175349154        0.5425288317        4.2802675555
 H         -7.8962736799       -0.7042010678        3.2761829731
 H         -7.7004285543       -1.5579950305        0.9663000085
 H         -5.6473210757       -1.1561375497       -0.3245835761
 H         -3.7769429963       -2.4201399850        1.4685858783
 H         -2.6345871780       -4.4757915141        0.7595950850
 H         -1.0259212010       -4.4207050294       -1.1124139442
 H         -0.5326247944       -2.2846697124       -2.2465550974
 H         -0.9959516134        2.7222996382       -1.7562163754
 H          1.1286763512        3.7726206336       -1.1007267069
 H          1.6982849993       -0.9599180151        2.3768874595
 H          0.9461149687       -3.2374205065        2.9754767975
 H          1.4423393369       -5.1396693149        1.5089227888
 H          2.7168258526       -4.8142726007       -0.5830019276
 H          4.0875834736       -3.9416021912       -2.6182528514
 H          5.2750684351       -2.6342332065       -4.3451573849
 H          5.4940712318       -0.2000379858       -4.1381941773
 H          4.5289549015        0.9907105837       -2.1959037988
