  86
  -132.472700861500       0.314724068505814      !
 O          3.7530019330        3.9050014731       -0.5623990166
 C          3.5988905222        2.7352896562       -0.2472118334
 C          4.7318521118        1.7815985993       -0.2221094861
 C          6.0224902769        2.2857698406       -0.3878745160
 C          7.1171003898        1.4489777742       -0.3530368023
 C          6.9313228873        0.0883611248       -0.1537411071
 C          5.6572381454       -0.4225191414        0.0047569584
 C          4.5468963720        0.4139864382       -0.0209676493
 C          3.1742410740       -0.1890333912        0.0938165225
 C          2.0882954930        0.8264879928        0.3456777808
 C          0.8453913909        0.3726114317        0.7417541296
 C         -0.1991049781        1.2508278490        1.0354261232
 N         -1.4099720806        0.7661845039        1.4799990946
 C         -2.5671017424        1.5674678995        1.5808011285
 C         -2.6422522911        2.6312415444        2.4684755046
 C         -3.8133597610        3.3623805379        2.5609750642
 C         -4.9063848567        3.0243036032        1.7818486747
 C         -4.8399285131        1.9466819767        0.9133511707
 C         -3.6756894079        1.2046648681        0.8118646916
 C         -3.4658441896        0.0275458677       -0.1272677005
 C         -4.7690118143       -0.4533841060       -0.7254282383
 C         -5.0000751335       -0.4554235959       -2.0932092269
 C         -6.2107273414       -0.8990632012       -2.5996948311
 C         -7.2042646728       -1.3449885192       -1.7470968765
 C         -6.9826400842       -1.3449650516       -0.3794405030
 C         -5.7753663710       -0.9023069211        0.1266397849
 C         -2.4542961702        0.4529604155       -1.1920110632
 C         -1.5916493736       -0.4822502851       -1.7510365690
 C         -0.6306350818       -0.0953024325       -2.6664168796
 C         -0.5142597261        1.2335419417       -3.0342340211
 C         -1.3883271319        2.1665889568       -2.5058477754
 C         -2.3563529325        1.7783496728       -1.5968357054
 C         -2.7932378152       -1.0447395724        0.7171746439
 C         -3.1286450626       -2.3880686434        0.7165093723
 C         -2.4063118633       -3.2877508643        1.4837013434
 C         -1.3535050263       -2.8495893171        2.2684750716
 C         -1.0100248892       -1.5097413087        2.2831425704
 C         -1.7123771003       -0.6130490270        1.4892036860
 C          0.0106533904        2.6207011731        0.8174459482
 C          1.2314091070        3.0685045658        0.3811210967
 C          2.3013255115        2.1938221312        0.1634384573
 C          3.0945904444       -1.2861420231        1.1344682614
 C          3.3003791849       -1.1847171955        2.4927443236
 C          3.1122691636       -2.3152941416        3.2770672124
 C          2.7192272683       -3.5169633564        2.7074018769
 C          2.5130756251       -3.6235847871        1.3409959317
 C          2.7048774425       -2.5011993236        0.5524795596
 C          2.5759155092       -2.3026825020       -0.8830991093
 C          2.2669536376       -3.1880222955       -1.9023298987
 C          2.2629028884       -2.7217995752       -3.2074024120
 C          2.5575290614       -1.3963623914       -3.4914193271
 C          2.8554328835       -0.4996644798       -2.4730984600
 C          2.8604023124       -0.9619988376       -1.1766179873
 H          6.1317526540        3.3489311960       -0.5439687959
 H          8.1122186537        1.8480043077       -0.4815973137
 H          7.7824521104       -0.5761956453       -0.1259659297
 H          5.5158142223       -1.4839748958        0.1514984202
 H          0.6821567002       -0.6901623118        0.8170265346
 H         -1.7898468359        2.8750808381        3.0844837871
 H         -3.8722904198        4.1941809568        3.2465730361
 H         -5.8171530814        3.5997901541        1.8494179333
 H         -5.6948830032        1.6935894898        0.3044404812
 H         -4.2330988048       -0.1093317066       -2.7699950567
 H         -6.3756085087       -0.8943584905       -3.6672218212
 H         -8.1474965267       -1.6900400820       -2.1440162052
 H         -7.7531873629       -1.6898294408        0.2946264281
 H         -5.6062042715       -0.9006305123        1.1945365009
 H         -1.6656756414       -1.5217042006       -1.4658081293
 H          0.0345594237       -0.8352833430       -3.0843036579
 H          0.2498415942        1.5385613557       -3.7330553198
 H         -1.3151529752        3.2041165474       -2.7964267239
 H         -3.0349771018        2.5162672071       -1.1937449758
 H         -3.9447310101       -2.7387730295        0.1023689244
 H         -2.6694208921       -4.3346698036        1.4665535969
 H         -0.7966289780       -3.5488859419        2.8735831662
 H         -0.2006618319       -1.1585006298        2.9055817788
 H         -0.7934895317        3.3229611243        0.9683940970
 H          1.3992591985        4.1204843187        0.2040416872
 H          3.5990693641       -0.2459471070        2.9361941890
 H          3.2701690034       -2.2566162840        4.3440099006
 H          2.5734848786       -4.3817470310        3.3384664757
 H          2.2061187851       -4.5612351149        0.9020711601
 H          2.0426345588       -4.2221663276       -1.6866155171
 H          2.0301342067       -3.4000858458       -4.0156404485
 H          2.5549030410       -1.0573369980       -4.5171403699
 H          3.0813629209        0.5337032327       -2.6919946898
  86
  -132.472602612000       0.283646620076522      !
 O          3.7668986308        3.8895390841       -0.6020714314
 C          3.6048879412        2.7295109824       -0.2568949394
 C          4.7346547007        1.7744582246       -0.1837049810
 C          6.0312918865        2.2738291520       -0.3103854726
 C          7.1214715926        1.4342123624       -0.2294305089
 C          6.9245221228        0.0763311097       -0.0232720271
 C          5.6441498583       -0.4298888137        0.0966293427
 C          4.5383046693        0.4095460069        0.0260952939
 C          3.1572280679       -0.1832917314        0.0900935694
 C          2.0792782985        0.8380117196        0.3511649061
 C          0.8349421381        0.3976932622        0.7571980230
 C         -0.2029245119        1.2874196430        1.0414819873
 N         -1.4148771775        0.8162843854        1.4978614052
 C         -2.5743920883        1.6182726682        1.5629564872
 C         -2.6596766810        2.7105234409        2.4143455762
 C         -3.8319284764        3.4436677111        2.4698948021
 C         -4.9162331060        3.0794931874        1.6904272219
 C         -4.8406698448        1.9726697055        0.8602609707
 C         -3.6753665120        1.2281547417        0.7963023425
 C         -3.4591522881        0.0154393335       -0.0943745726
 C         -4.7584311167       -0.4846207464       -0.6852328188
 C         -4.9811022876       -0.5273667667       -2.0538086847
 C         -6.1890231226       -0.9847724327       -2.5544202603
 C         -7.1884067391       -1.4039840044       -1.6951110834
 C         -6.9756217376       -1.3623281483       -0.3267045463
 C         -5.7711275377       -0.9054876942        0.1735627414
 C         -2.4345861451        0.3894640249       -1.1660373281
 C         -1.5937840713       -0.5831041631       -1.6943258500
 C         -0.6191766775       -0.2473713245       -2.6150730827
 C         -0.4669568737        1.0672603028       -3.0193895368
 C         -1.3187715565        2.0369278082       -2.5219435603
 C         -2.3009274381        1.6997160092       -1.6073828779
 C         -2.7942959984       -1.0232337717        0.7973216122
 C         -3.1301390282       -2.3654740594        0.8482076003
 C         -2.4086455372       -3.2350518384        1.6501517136
 C         -1.3545490564       -2.7678485838        2.4162564186
 C         -1.0111317943       -1.4285000035        2.3799430967
 C         -1.7149688432       -0.5621752409        1.5542889199
 C          0.0141083504        2.6522668851        0.8014627224
 C          1.2375614792        3.0866018367        0.3586138442
 C          2.3011886226        2.2020451184        0.1528387612
 C          3.0430105572       -1.3246360672        1.0770442200
 C          3.2111912334       -1.2857609892        2.4439075264
 C          2.9998950478       -2.4501368190        3.1706754891
 C          2.6220714925       -3.6238214935        2.5361823933
 C          2.4539929944       -3.6677979088        1.1611847730
 C          2.6680346803       -2.5111090453        0.4300241801
 C          2.5794165106       -2.2475438347       -0.9981219554
 C          2.3009628694       -3.0856588608       -2.0651138437
 C          2.3338092737       -2.5605862794       -3.3473067524
 C          2.6334962853       -1.2232054475       -3.5624590017
 C          2.9013112088       -0.3740979911       -2.4964705147
 C          2.8713381138       -0.8954583803       -1.2227934990
 H          6.1491243122        3.3346213546       -0.4757244856
 H          8.1215666457        1.8287194120       -0.3300144155
 H          7.7720507620       -0.5905228700        0.0389740736
 H          5.4952451017       -1.4896034256        0.2481369038
 H          0.6632123463       -0.6627252975        0.8465971621
 H         -1.8149298123        2.9743458015        3.0326291540
 H         -3.8987011456        4.2972790063        3.1274053961
 H         -5.8275316850        3.6568548516        1.7283930825
 H         -5.6893632245        1.6981614304        0.2519097801
 H         -4.2099974763       -0.2014517734       -2.7358891240
 H         -6.3475548471       -1.0107619706       -3.6225898853
 H         -8.1297948085       -1.7591132705       -2.0874427784
 H         -7.7508916657       -1.6857645781        0.3525428089
 H         -5.6085933812       -0.8724361399        1.2419264048
 H         -1.6969356289       -1.6117698485       -1.3802912889
 H          0.0284661745       -1.0153247893       -3.0093831056
 H          0.3080578073        1.3319180717       -3.7225408287
 H         -1.2167906237        3.0637771340       -2.8403019532
 H         -2.9611791334        2.4663096984       -1.2281235617
 H         -3.9455165952       -2.7395389619        0.2470280862
 H         -2.6723128658       -4.2816894806        1.6736639554
 H         -0.7965712071       -3.4442303735        3.0458252882
 H         -0.2000121724       -1.0536716771        2.9860379840
 H         -0.7856494396        3.3616083794        0.9415389968
 H          1.4119243649        4.1349892467        0.1670494735
 H          3.4985619505       -0.3687299783        2.9375424731
 H          3.1280461417       -2.4403002518        4.2431822615
 H          2.4591245169       -4.5165289427        3.1226062485
 H          2.1594862432       -4.5843224202        0.6720166294
 H          2.0718814925       -4.1285699775       -1.9032202601
 H          2.1253166761       -3.2015862596       -4.1918384115
 H          2.6583148597       -0.8381156642       -4.5713003694
 H          3.1332335240        0.6679677688       -2.6614849959
  86
  -132.472468795000       0.246195197920434      !
 O          3.7866871090        3.8500865846       -0.6876552857
 C          3.6164307626        2.7090209108       -0.2881208156
 C          4.7425886593        1.7582771910       -0.1385445003
 C          6.0434021766        2.2563068807       -0.2099846599
 C          7.1275564111        1.4199768669       -0.0492009466
 C          6.9193800323        0.0677245244        0.1797832064
 C          5.6342346372       -0.4378874826        0.2424187852
 C          4.5344893491        0.3984808860        0.0942066279
 C          3.1472246404       -0.1846490517        0.0896853310
 C          2.0757018866        0.8427656638        0.3535394837
 C          0.8300730583        0.4195146001        0.7718479920
 C         -0.2018721335        1.3228133137        1.0361989609
 N         -1.4149955772        0.8687962918        1.5069296247
 C         -2.5756710909        1.6712754334        1.5350138258
 C         -2.6671469750        2.7953581860        2.3432324138
 C         -3.8394582477        3.5302860599        2.3617484416
 C         -4.9179886877        3.1365500053        1.5887094717
 C         -4.8370685537        1.9976022575        0.8038573342
 C         -3.6717574372        1.2506943221        0.7775825840
 C         -3.4527613307        0.0015850654       -0.0606930495
 C         -4.7517845293       -0.5224841989       -0.6307790217
 C         -4.9759646001       -0.6193354208       -1.9962159738
 C         -6.1849124403       -1.0955118975       -2.4766673214
 C         -7.1833955735       -1.4798862389       -1.6001254396
 C         -6.9686679924       -1.3847243406       -0.2347216057
 C         -5.7634454103       -0.9087255835        0.2453451614
 C         -2.4248384980        0.3290665648       -1.1443986625
 C         -1.5825014803       -0.6653664830       -1.6278150918
 C         -0.6020660136       -0.3688581357       -2.5559199829
 C         -0.4467688788        0.9275447628       -3.0141580714
 C         -1.3003679932        1.9175673490       -2.5621058413
 C         -2.2872140090        1.6196769025       -1.6389233928
 C         -2.7899276008       -0.9991736978        0.8746586340
 C         -3.1234017239       -2.3391132304        0.9772318509
 C         -2.4020144169       -3.1754253482        1.8138214166
 C         -1.3497176285       -2.6768641968        2.5625057099
 C         -1.0087469419       -1.3393834780        2.4744035252
 C         -1.7132269360       -0.5068959360        1.6151773537
 C          0.0216428274        2.6795070766        0.7604968934
 C          1.2478849469        3.0965816877        0.3078601126
 C          2.3058351277        2.2011375885        0.1251746408
 C          2.9887089221       -1.3724132305        1.0116506584
 C          3.1080108325       -1.4055015897        2.3841344721
 C          2.8611445693       -2.6031059057        3.0422722978
 C          2.4976063651       -3.7394267546        2.3352186281
 C          2.3805343491       -3.7117620115        0.9545887271
 C          2.6302059130       -2.5214350719        0.2917647107
 C          2.5936030308       -2.1847994690       -1.1231701384
 C          2.3480144835       -2.9652594591       -2.2408960994
 C          2.4211323150       -2.3739142523       -3.4923738999
 C          2.7284052339       -1.0279955190       -3.6277642194
 C          2.9663229934       -0.2372927712       -2.5111503890
 C          2.8980901247       -0.8248391615       -1.2681747799
 H          6.1704137158        3.3128547336       -0.3941075177
 H          8.1316772731        1.8133096468       -0.1035793886
 H          7.7622296433       -0.5961734074        0.3054593856
 H          5.4783742254       -1.4940600285        0.4099898322
 H          0.6507046763       -0.6372372333        0.8862925995
 H         -1.8273960459        3.0825869747        2.9578250767
 H         -3.9105653278        4.4088173026        2.9849751931
 H         -5.8292316619        3.7152143251        1.5971738653
 H         -5.6817339135        1.6991948555        0.2012477763
 H         -4.2052991847       -0.3210364122       -2.6914212876
 H         -6.3448679278       -1.1640989291       -3.5427172823
 H         -8.1252594695       -1.8505332370       -1.9767219851
 H         -7.7431308117       -1.6808359092        0.4578606195
 H         -5.6000041341       -0.8317261210        1.3113583539
 H         -1.6886619172       -1.6799724720       -1.2719026417
 H          0.0477373787       -1.1522875192       -2.9144547077
 H          0.3324327551        1.1614477920       -3.7233639038
 H         -1.1961946925        2.9300258717       -2.9230308374
 H         -2.9486430246        2.4019892320       -1.2953462910
 H         -3.9366622988       -2.7378673678        0.3892036672
 H         -2.6638449381       -4.2208206955        1.8776712863
 H         -0.7914063366       -3.3274484945        3.2183461083
 H         -0.1981624309       -0.9395295076        3.0648909011
 H         -0.7745963205        3.3963251463        0.8809100412
 H          1.4280292845        4.1393201256        0.0915427770
 H          3.3850476473       -0.5177918316        2.9340824520
 H          2.9506071654       -2.6491582767        4.1178028252
 H          2.3052484039       -4.6591217008        2.8685857866
 H          2.0971924812       -4.5994575526        0.4089003106
 H          2.1114036788       -4.0141549334       -2.1409183126
 H          2.2379669818       -2.9691213116       -4.3754174861
 H          2.7832634856       -0.5905986997       -4.6136960638
 H          3.2052242222        0.8111217979       -2.6146888228
  86
  -132.471785623400       0.119485621959042      !
 O          3.7665865132        3.9429128390       -0.3311834090
 C          3.6102771766        2.7446242486       -0.1527228885
 C          4.7325298515        1.7882619923       -0.2944664657
 C          6.0047729167        2.3008383573       -0.5545555886
 C          7.0915896657        1.4636623032       -0.6843312523
 C          6.9177161124        0.0925911142       -0.5569672331
 C          5.6627088028       -0.4260623896       -0.3034619516
 C          4.5598249574        0.4104890086       -0.1669196729
 C          3.2159747921       -0.2085394942        0.0894403895
 C          2.1154362712        0.7936294673        0.3392064430
 C          0.8730779086        0.3094414804        0.7006168223
 C         -0.1844441667        1.1606087316        1.0221015396
 N         -1.3970119563        0.6439877606        1.4220410690
 C         -2.5493042987        1.4366043441        1.6044118614
 C         -2.6052772115        2.4244146795        2.5773891531
 C         -3.7745034555        3.1421652201        2.7553669098
 C         -4.8837997171        2.8666241211        1.9744419401
 C         -4.8343218566        1.8669927501        1.0161361171
 C         -3.6724643848        1.1378739934        0.8293215672
 C         -3.4740467664        0.0518318739       -0.2174009065
 C         -4.7820416533       -0.3846530071       -0.8395832222
 C         -5.0123222559       -0.3152557259       -2.2058122321
 C         -6.2242211026       -0.7275181015       -2.7352967245
 C         -7.2199915557       -1.2135496423       -1.9076074555
 C         -6.9976328868       -1.2892581036       -0.5421839932
 C         -5.7884003311       -0.8795658322       -0.0133560475
 C         -2.4915811373        0.6000861441       -1.2522971643
 C         -1.5565866970       -0.2300219707       -1.8573281137
 C         -0.6371876704        0.2831044074       -2.7541607517
 C         -0.6368377770        1.6325504376       -3.0584084620
 C         -1.5818180200        2.4620184834       -2.4806495857
 C         -2.5055171021        1.9487830172       -1.5885531629
 C         -2.7891601592       -1.0906364194        0.5164750667
 C         -3.1308560190       -2.4275540998        0.4029053272
 C         -2.4133795682       -3.3918367328        1.0921152774
 C         -1.3620013423       -3.0252866690        1.9144700881
 C         -1.0111010806       -1.6930965973        2.0407916962
 C         -1.7051741529       -0.7302382621        1.3204423250
 C          0.0151021261        2.5420570163        0.8768862066
 C          1.2367024152        3.0218165664        0.4797165034
 C          2.3183703028        2.1694365421        0.2281095700
 C          3.2412280472       -1.1805879147        1.2539215396
 C          3.5799127827       -0.9277356920        2.5645721388
 C          3.4695179785       -1.9603519294        3.4867951967
 C          3.0202458237       -3.2137743195        3.0991976691
 C          2.6791669953       -3.4715883280        1.7808602873
 C          2.7940809288       -2.4482905828        0.8546757597
 C          2.5285082964       -2.4136328015       -0.5754343628
 C          2.0950986636       -3.3986983386       -1.4467932931
 C          1.9701685192       -3.0863268134       -2.7911362506
 C          2.2754154300       -1.8169209147       -3.2583312453
 C          2.6913094057       -0.8179250459       -2.3866684370
 C          2.8083315199       -1.1240734513       -1.0498511958
 H          6.1057019895        3.3721885466       -0.6477035332
 H          8.0720446667        1.8704778044       -0.8825439604
 H          7.7634008801       -0.5722333494       -0.6553293647
 H          5.5285585102       -1.4943573850       -0.2068431585
 H          0.7225959584       -0.7573432140        0.7254879536
 H         -1.7387378372        2.6190760774        3.1912099490
 H         -3.8194258581        3.9140347499        3.5087412635
 H         -5.7936388684        3.4316323256        2.1094737917
 H         -5.7011772017        1.6659936276        0.4045206849
 H         -4.2436138462        0.0615344226       -2.8639262935
 H         -6.3884384426       -0.6661339607       -3.8011811109
 H         -8.1654450972       -1.5307702869       -2.3220523843
 H         -7.7692035025       -1.6673904146        0.1125636680
 H         -5.6166127826       -0.9430739022        1.0522174066
 H         -1.5391347200       -1.2853348564       -1.6260004100
 H          0.0846344186       -0.3783852596       -3.2078194889
 H          0.0914801763        2.0351663212       -3.7462092595
 H         -1.5992272143        3.5146817064       -2.7211709611
 H         -3.2416880022        2.6046892235       -1.1466059662
 H         -3.9495558055       -2.7212446035       -0.2369384045
 H         -2.6821321845       -4.4322605433        0.9881113281
 H         -0.8133982952       -3.7747293488        2.4646940656
 H         -0.2058581100       -1.3994682901        2.6976373317
 H         -0.7982627632        3.2277771907        1.0534100176
 H          1.3972395546        4.0828808986        0.3591488525
 H          3.9246236230        0.0505907237        2.8663199192
 H          3.7343197916       -1.7839222308        4.5189014740
 H          2.9356977593       -3.9992744625        3.8361531784
 H          2.3277320177       -4.4484537839        1.4832836407
 H          1.8665667322       -4.3915451274       -1.0886253881
 H          1.6392664615       -3.8438727592       -3.4867046491
 H          2.1882217811       -1.6024715504       -4.3138866162
 H          2.9169610979        0.1750888523       -2.7472379058
  86
  -132.470650568800       3.594849153818837E-002 !
 O          3.4873786553        3.7158379134       -0.9695331999
 C          3.2840933117        2.5733972379       -0.5897536095
 C          4.2482194391        1.8575440291        0.2790532577
 C          5.2789066168        2.5912482864        0.8660273713
 C          6.1895225540        1.9823510488        1.7034424144
 C          6.0810516626        0.6230205810        1.9584000753
 C          5.0689336292       -0.1159143116        1.3742971425
 C          4.1388041127        0.4905668984        0.5389043200
 C          3.0905412899       -0.3416987888       -0.1458428375
 C          1.9204752614        0.4762524181       -0.6318897055
 C          0.7187645961       -0.1539877763       -0.8791901297
 C         -0.3847778447        0.5387989997       -1.3787320995
 N         -1.6045650700       -0.1005781971       -1.5047288245
 C         -2.7805094900        0.6102848782       -1.8319810978
 C         -2.9780771924        1.1106878106       -3.1107769935
 C         -4.1619890594        1.7576206533       -3.4159608647
 C         -5.1461144752        1.8923540205       -2.4515257121
 C         -4.9507029169        1.3875253011       -1.1762465978
 C         -3.7696930864        0.7389898419       -0.8555216721
 C         -3.4036835564        0.2292207535        0.5323508583
 C         -2.3438563571        1.1961437498        1.0620492401
 C         -2.5143410550        2.5637914532        0.8718705806
 C         -1.5448913426        3.4609834360        1.2786543684
 C         -0.3883370868        3.0054255107        1.8873894284
 C         -0.2256804882        1.6503374108        2.1076163303
 C         -1.1951248481        0.7493608440        1.7015105207
 C         -4.6115283708        0.1414968294        1.4404894222
 C         -4.6679804642        0.7851009914        2.6678686574
 C         -5.7911370224        0.6677605722        3.4704073943
 C         -6.8688847532       -0.0946035415        3.0580356722
 C         -6.8177850334       -0.7470930782        1.8368367609
 C         -5.6975343119       -0.6314067805        1.0362825847
 C         -2.7825585275       -1.1411805794        0.3211918394
 C         -3.0362630777       -2.2480771882        1.1149331567
 C         -2.4121798630       -3.4559092032        0.8503315856
 C         -1.5520075711       -3.5764876454       -0.2270669092
 C         -1.2899724396       -2.4800862564       -1.0291726146
 C         -1.8763707089       -1.2575354824       -0.7339300348
 C         -0.2326867849        1.8974084636       -1.6863545604
 C          0.9658395389        2.5230485408       -1.4505832415
 C          2.0569009424        1.8387709338       -0.9065871015
 C          2.6327770667       -1.5382811792        0.6574594976
 C          1.9891778217       -1.5548318495        1.8757507918
 C          1.5846507354       -2.7749941278        2.3999902467
 C          1.8273257165       -3.9561771252        1.7158767233
 C          2.4876782643       -3.9480245379        0.4976941397
 C          2.8899428380       -2.7327928046       -0.0315296751
 C          3.5722622375       -2.4106080015       -1.2748354438
 C          4.0603786301       -3.2237522392       -2.2842658324
 C          4.6834454136       -2.6310900159       -3.3707538365
 C          4.8155732840       -1.2530240906       -3.4511098648
 C          4.3268074250       -0.4313475440       -2.4438400175
 C          3.7106668022       -1.0191992104       -1.3621885583
 H          5.3378207811        3.6465490093        0.6429898117
 H          6.9841661007        2.5578464961        2.1544531812
 H          6.7905136556        0.1362365709        2.6115715486
 H          4.9961124025       -1.1768517494        1.5671157610
 H          0.6261347502       -1.1995947181       -0.6393502869
 H         -2.2027940584        0.9913958670       -3.8526708812
 H         -4.3169185237        2.1536480159       -4.4081781035
 H         -6.0692208811        2.3994468797       -2.6885248696
 H         -5.7170078260        1.5141214936       -0.4257635282
 H         -3.4123694547        2.9290248337        0.3949349717
 H         -1.6906393483        4.5181056900        1.1128493053
 H          0.3790852092        3.7013638984        2.1907645039
 H          0.6683791100        1.2928618729        2.5962276382
 H         -1.0470214425       -0.3066675872        1.8761361311
 H         -3.8327049406        1.3817386762        3.0031507140
 H         -5.8204203555        1.1754712618        4.4234294994
 H         -7.7441915462       -0.1828564404        3.6843551489
 H         -7.6527283898       -1.3485945689        1.5082191557
 H         -5.6582702395       -1.1449413113        0.0856221573
 H         -3.7123839692       -2.1643771257        1.9526385609
 H         -2.6064172316       -4.3071789625        1.4851069218
 H         -1.0824141972       -4.5235876069       -0.4451367419
 H         -0.6360890920       -2.5683714486       -1.8839515495
 H         -1.0680162718        2.4618983496       -2.0701518429
 H          1.0855538365        3.5756689013       -1.6596206827
 H          1.8004537800       -0.6363943047        2.4100989616
 H          1.0714581179       -2.8035262490        3.3498813882
 H          1.4985548737       -4.8937432298        2.1398602531
 H          2.6794325468       -4.8701081691       -0.0306966396
 H          3.9600048412       -4.2973954853       -2.2249872317
 H          5.0719803392       -3.2501693317       -4.1662139930
 H          5.3044129932       -0.8125100881       -4.3072630636
 H          4.4287237576        0.6423673199       -2.5077287651
