118
 energy: -187.453745086383 gnorm: 0.000060511830 xtb: 6.7.1 (edcfbbe)
C            5.92223062756393        5.56148221338528       -0.63205583150358
C            5.32119283158796        4.61263952021523        0.17770483627744
C            5.89561978511140        3.36553955432910        0.33948219528097
C            7.08103599954696        3.04918075501059       -0.32209366363647
C            7.73001691495324        1.75227475945130       -0.20357268240471
N            9.02991203043203        1.59411052364004       -0.18467566745795
C            9.24550451512281        0.25929703056842       -0.05765131154107
C           10.49359632917544       -0.42093179552044        0.03705530616782
C           11.71636148474625        0.23977865252027        0.02088471925714
C           12.89584102138392       -0.47633428931282        0.13339132346912
C           12.86745306895329       -1.85092642768737        0.25918242237401
C           11.65584452762502       -2.54788461492354        0.27312653053180
C           11.61378840153013       -3.96743986026330        0.38995967491040
C           10.43759985882421       -4.63318236583519        0.37683704014298
C            9.19622750550079       -3.94288366142159        0.25192970698229
C            7.98525474164145       -4.63915595286924        0.21136927507922
C            6.79224841731762       -3.96432285671430        0.06422924545378
C            6.77082482213964       -2.58243807407415       -0.01788675485955
C            7.95139584921064       -1.84498657492782        0.04867441866535
C            9.19695593293575       -2.52913197330192        0.15902787938513
C           10.43838396266697       -1.83157648987516        0.16208134793990
C            8.02917223242966       -0.42384327161498       -0.01225889585497
N            7.06287734023757        0.55102441324222       -0.09808930646955
C            5.66251123996024        0.41269398737281       -0.10060944415593
C            4.93824874333539        0.80322180770654       -1.22074174430398
C            3.55842498503403        0.75241750421874       -1.19702842500843
C            2.88530914065624        0.30832846813393       -0.06284302018688
C            1.40886801263975        0.30214769592546       -0.02430657742246
C            0.71251968556215       -0.91370923418880       -0.00286190792571
C            1.38529085015839       -2.16306618454200       -0.05285287462304
C            0.69749078539359       -3.33630693942875       -0.01359762650797
C           -0.70854339432856       -3.33367477686806        0.08214275587915
C           -1.39255411220790       -2.15793282277940        0.11147309601335
C           -0.71568535427493       -0.91123613747753        0.05136141596291
C           -1.40828024750122        0.30686405609990        0.06198780651562
C           -2.88484039617227        0.31823778231792        0.09505915741075
C           -3.61623111634836       -0.10003078291865       -1.01366075812039
C           -4.99546222234244       -0.03835527690671       -1.00910768722230
C           -5.66155497009363        0.43589583840814        0.11727448085131
N           -7.06119283624296        0.58014412333213        0.10442556629661
C           -7.72536878337723        1.78442370773449        0.19173380425811
C           -7.07263200343249        3.07942062331875        0.31167807532771
C           -7.68929430267614        4.05552147908840        1.09448894072978
C           -7.10786730806337        5.29850535544210        1.24910168346306
C           -5.90629652306599        5.58799348942773        0.62240525329394
C           -5.30239833199060        4.63392293063368       -0.17904960320148
C           -5.88045631044022        3.38853040436585       -0.34105265766781
N           -9.02539101504892        1.63083028373481        0.15457774867059
C           -9.24404224329397        0.29590130346647        0.03290735546532
C          -10.49263863065945       -0.38095741623138       -0.07832333010536
C          -11.71332561884326        0.28370954450372       -0.08840422555882
C          -12.89300048766893       -0.42940533931603       -0.21684856125474
C          -12.86700581963646       -1.80494174537754       -0.33239411559048
C          -11.65764511655706       -2.50583542854533       -0.32030286984428
C          -11.61828001248431       -3.92632367814687       -0.42644820654497
C          -10.44479785257558       -4.59586691853237       -0.38779956673835
C           -9.20349016372144       -3.90871936854214       -0.24614449817134
C           -7.99566115717583       -4.60841260051553       -0.17900271689560
C           -6.80323066920174       -3.93629850136793       -0.01544393309082
C           -6.77864646421867       -2.55389374932453        0.05619094170950
C           -7.95547065612059       -1.81342904586781       -0.03746589652128
C           -9.20119036904843       -2.49433175878278       -0.16378973980735
C          -10.43995640845964       -1.79264170671233       -0.19303568834350
C           -8.02966207816191       -0.39169874239839        0.01075049172219
C           -4.94160269024056        0.83049017192422        1.23867512584585
C           -3.56184904490339        0.77287286095019        1.22269685981378
C           -0.71232615678965        1.52407408944905        0.03139147023489
C           -1.38752685269503        2.77346611866043        0.01487414519781
C           -0.69859767863703        3.94672132529866        0.00215087236507
C            0.71044934239225        3.94455010414243        0.00759973308042
C            1.39573656702434        2.76908949132736        0.00404605511548
C            0.71667461818225        1.52170210055611       -0.00267362049846
C            3.62068590970744       -0.10545068192954        1.04489518985182
C            5.00024744694873       -0.05022834769924        1.03265507931625
C            7.69516819609175        4.02023159513706       -1.11323562470011
C            7.11757274793418        5.26502883995212       -1.26736007595736
H            5.46661435759739        6.53249949128416       -0.75827306347276
H            4.40136887777334        4.84609572727869        0.69452456620291
H            5.43057738736890        2.65026818320013        1.00106266986975
H           11.71850395251063        1.31414418810389       -0.07635907407931
H           13.84305607701782        0.04327498590521        0.12290383540893
H           13.78999624650248       -2.40756613224975        0.34564739311546
H           12.55028129267536       -4.49928310819823        0.48271550263508
H           10.41042174043717       -5.71086788783661        0.45713278508281
H            7.99646225900506       -5.71714553632703        0.28475751057656
H            5.86298821000952       -4.51332509141168        0.01250182518634
H            5.82629170435800       -2.07780194424371       -0.14636107712838
H            5.46191027879046        1.15730599828957       -2.09613366569834
H            2.99184288098787        1.06125211198853       -2.06295481243236
H            2.46261584015347       -2.16646162713622       -0.12664275860601
H            1.22296814760435       -4.27901320968822       -0.05235949889022
H           -1.23699363185337       -4.27436236976357        0.12868267307037
H           -2.46991487148056       -2.15707625028965        0.18498830840671
H           -3.09464579065253       -0.45496434719200       -1.89040566659006
H           -5.56472156840155       -0.34514937843238       -1.87456572630172
H           -8.62534949310303        3.81555431658678        1.57412715829196
H           -7.59085819349938        6.04527867265603        1.86191921306682
H           -5.44793363101427        6.55769285288515        0.74880534387713
H           -4.37750675877009        4.86192744609433       -0.68920938211442
H           -5.41294359506307        2.66879661309501       -0.99606590691534
H          -11.71365756393545        1.35875781984429        0.00104366300814
H          -13.83850987142383        0.09331345588683       -0.22692022953644
H          -13.78974450872670       -2.35922898271007       -0.43103057409800
H          -12.55479579236648       -4.45573534891504       -0.53199159708293
H          -10.41987556868117       -5.67418821045376       -0.45984873277545
H           -8.00902788328491       -5.68687753441217       -0.24460828343199
H           -5.87693304190249       -4.48788108176493        0.05750284726225
H           -5.83501848312412       -2.05108219243852        0.19803002511217
H           -5.46824499159611        1.19292912879486        2.10883943648722
H           -2.99841007888486        1.08473466527361        2.08959067493143
H           -2.46742884011990        2.77907897430669        0.01314158791328
H           -1.22609489116793        4.88914879481990       -0.00799775458033
H            1.24084591673009        4.88539384808955        0.01039995055614
H            2.47565804272931        2.77135095186628        0.00588246437387
H            3.10216288327425       -0.45191292066822        1.92684673174425
H            5.57256960307249       -0.35333481000949        1.89740158224540
H            8.62635333081289        3.77472625443784       -1.59948022492459
H            7.59866725402301        6.00780389764144       -1.88649708969302
