118
 energy: -187.390396556526 gnorm: 0.000076172265 xtb: 6.7.1 (edcfbbe)
C            5.80932562661508        5.54631255441898       -0.03822263542878
C            5.24141901330816        4.50511769115145        0.67677410777992
C            5.84894716950414        3.26367155909078        0.70565319578643
C            7.03416972254383        3.04795286175631        0.00436632610292
C            7.71064437612339        1.75921405416171       -0.01638120113046
N            9.01189873250500        1.62269528718983        0.02570984865986
C            9.25120573788640        0.28586130879363        0.00158113791356
C           10.50896885530566       -0.37886235975998        0.06336896665768
C           11.71717249393659        0.30052423759798        0.17199075763055
C           12.90668398429569       -0.40340887100339        0.25048738617178
C           12.90331834950597       -1.78365052717378        0.21757959360062
C           11.70728436800903       -2.49861168230796        0.10193196794395
C           11.69180291878594       -3.92240499237252        0.05282927061256
C           10.53170003680943       -4.60215600601617       -0.08774148565526
C            9.28182693690963       -3.92332360568119       -0.18506627206724
C            8.08915098113103       -4.63052433472404       -0.36144962072226
C            6.88926866794522       -3.96309003156100       -0.48461510746722
C            6.84050026138713       -2.58187621816627       -0.40255965786270
C            8.00004410049745       -1.83773356860891       -0.19179984743802
C            9.25501028634022       -2.50875377275144       -0.11105472020938
C           10.47984055429176       -1.79534820517554        0.02406378836342
C            8.04763011177322       -0.41872854832882       -0.07530828716822
N            7.06474275345241        0.54255769940125       -0.07798223001198
C            5.66787045372495        0.38882257156543       -0.11365068553630
C            4.93861660395633        0.97254500432732       -1.14506456672051
C            3.56128018034948        0.92058921150493       -1.12717095568646
C            2.88041145565603        0.27077243944588       -0.09387803029803
C            1.41975337792763        0.26465476617420       -0.04975994487650
C            0.71040969843177       -0.97517511395728       -0.03554956331328
C            1.37097233042180       -2.20139998344407       -0.13908282604607
C            0.67727418198005       -3.40844131072179       -0.07284595884100
C           -0.68893134169081       -3.40545148697567        0.10134144585361
C           -1.37798020282906       -2.19547721823448        0.16246748523924
C           -0.71270952190039       -0.97225540054365        0.05378229385457
C           -1.41742700281595        0.27028887241444        0.06258483227179
C           -2.87810210758365        0.28181409892480        0.10429662375878
C           -3.62611650813470       -0.33704348990591       -0.90165948980448
C           -5.00270742551558       -0.26336144643924       -0.90618230532716
C           -5.66515603100769        0.41057477648117        0.11740992966386
N           -7.06125193837508        0.57016373701730        0.07752259543000
C           -7.70155566264349        1.78942274419667        0.00914232461588
C           -7.01934168904393        3.07508905999493       -0.01472943249579
C           -7.59837367923401        4.14183534543556        0.67190803210729
C           -6.98191765323815        5.37765816139076        0.69076136153577
C           -5.78372938969158        5.56823650036747        0.02139112426702
C           -5.21850900264630        4.52181248625125       -0.68807762884793
C           -5.83137440633803        3.28292093537315       -0.71374912836658
N           -9.00326079330394        1.65851842122578       -0.03642998437205
C           -9.24857982493442        0.32285776288385       -0.00785096330960
C          -10.50909657009988       -0.33648822901564       -0.07110121146214
C          -11.71389246641103        0.34785181170761       -0.18627292327245
C          -12.90627383437919       -0.35107766798669       -0.26593789599746
C          -12.90917680819973       -1.73118284994928       -0.22767539077825
C          -11.71672978462588       -2.45100978932448       -0.10539256618426
C          -11.70775645708006       -3.87465938270318       -0.05076415471166
C          -10.55115053830951       -4.55901431469743        0.09613432150984
C           -9.29856994556803       -3.88538118294897        0.19482702520154
C           -8.10961753068219       -4.59719250871542        0.37766299007734
C           -6.90714996871437       -3.93464051889423        0.50198826684767
C           -6.85195565669753       -2.55398067253383        0.41477967569829
C           -8.00751320282871       -1.80550771976564        0.19757080715103
C           -9.26520729508080       -2.47123964903822        0.11547255187217
C          -10.48641313145702       -1.75292457943381       -0.02627344175275
C           -8.04839700097349       -0.38675856333786        0.07549200716799
C           -4.93592640071485        0.99571952504901        1.14803902375375
C           -3.55875108800672        0.93842911114643        1.13342910809596
C           -0.70948741204217        1.51172118330128        0.01612172828715
C           -1.37607367849183        2.73829005606892       -0.04003702547763
C           -0.67948909849098        3.94533093207285       -0.03265029617102
C            0.69615648542054        3.94275904040183        0.03289659385461
C            1.38797652498860        2.73302013511025        0.04442711160080
C            0.71654278417165        1.50890640434987       -0.00737372507140
C            3.62822673935475       -0.34646099895574        0.91319266464805
C            5.00511418462803       -0.27802336180465        0.91436538305519
C            7.61603007500964        4.10949737387825       -0.68792634813675
C            7.00490630040882        5.34791032889875       -0.70998375358140
H            5.32754755604142        6.51260671622381       -0.06206099116101
H            4.32183749661953        4.66101666591416        1.22232727802628
H            5.41017103944123        2.47137333692337        1.29365395688673
H           11.69945552335468        1.37879593481024        0.19848981957015
H           13.84199275139969        0.13014856678828        0.33842816237995
H           13.83363864971413       -2.33066429163006        0.27774697785524
H           12.63510579109535       -4.44546425501724        0.12346055868528
H           10.52505986646734       -5.68210520032971       -0.13430321172033
H            8.12105907867852       -5.70927508707366       -0.41406872163392
H            5.97596893526186       -4.51748264338580       -0.64563458854352
H            5.89202968804856       -2.08116136442167       -0.51637000500363
H            5.45960300213008        1.47484837285228       -1.94659066138465
H            2.99594899648639        1.37176820036298       -1.92892037723518
H            2.44107648363118       -2.21852670731830       -0.27868035168114
H            1.21930086276065       -4.33905993909703       -0.14921805184491
H           -1.23454223946541       -4.33364472276816        0.18159735851359
H           -2.44814779698086       -2.20789001440624        0.30209402088284
H           -3.11275870417870       -0.83867502058254       -1.70869122018558
H           -5.57520507448257       -0.71081864147695       -1.70587473258824
H           -8.53191497425841        3.97818570773002        1.18740170415794
H           -7.43478584569256        6.19583722643022        1.23111493773480
H           -5.29779856205065        6.53250708460576        0.04276028047518
H           -4.29683590283042        4.67157987457760       -1.23181637165573
H           -5.39452883136933        2.48645017423005       -1.29753533128749
H          -11.69127149092893        1.42592224926110       -0.21686036915140
H          -13.83889747037594        0.18629685421336       -0.35900274242661
H          -13.84173240108584       -2.27427358161981       -0.28878015884640
H          -12.65316031108784       -4.39377954507227       -0.12235656491878
H          -10.54948074432137       -5.63879167671204        0.14691885150474
H           -8.14649986237391       -5.67558154301835        0.43430989719560
H           -5.99684165903269       -4.49247846095561        0.66796932115347
H           -5.90161671755947       -2.05704551316560        0.52960793243374
H           -5.45673201207462        1.50340905633491        1.94628370784862
H           -2.99349180317294        1.39072370478870        1.93460062817030
H           -2.45398616444649        2.75851943788728       -0.09293706143977
H           -1.22706562923019        4.87527796186921       -0.06772398648303
H            1.24738028502022        4.87066420008135        0.06473464255563
H            2.46597349420174        2.74914259917035        0.09708052115354
H            3.11474172332174       -0.84262866904211        1.72351522520396
H            5.57767694603708       -0.72426259679715        1.71469361785840
H            8.54748477632370        3.93977183584358       -1.20522880859849
H            7.45991053457407        6.16201311671609       -1.25468387616690
