  118
       -187.38568325
 C          5.8137918679        5.5354829562        0.6811685366
 C          5.2014291620        4.4144278896        1.2160933679
 C          5.7985626260        3.1721028175        1.1083709080
 C          7.0184610893        3.0367849686        0.4471439521
 C          7.6972048232        1.7595849599        0.2913324529
 N          9.0001079053        1.6293105543        0.3352222413
 C          9.2526493399        0.3067682316        0.1661389597
 C         10.5164589508       -0.3483487667        0.1613795251
 C         11.7169599313        0.3268759064        0.3533241177
 C         12.9140652089       -0.3685831359        0.3542112423
 C         12.9258248945       -1.7356423849        0.1617028784
 C         11.7376686041       -2.4454030625       -0.0400283807
 C         11.7380176077       -3.8539404490       -0.2523430975
 C         10.5852657512       -4.5253875562       -0.4732071967
 C          9.3285352415       -3.8530956921       -0.4965912552
 C          8.1436681134       -4.5487125028       -0.7552148765
 C          6.9365313313       -3.8848585426       -0.8038379002
 C          6.8726270287       -2.5221509539       -0.5673541544
 C          8.0241659060       -1.7933617949       -0.2739100850
 C          9.2861036070       -2.4564397487       -0.2631761704
 C         10.5028662712       -1.7509429559       -0.0415254200
 C          8.0557455540       -0.3954927115       -0.0028927783
 N          7.0643311108        0.5516812203        0.0869205509
 C          5.6699665976        0.3904530851       -0.0024369090
 C          4.9648158158        1.0500859712       -1.0053525528
 C          3.5891949512        0.9854391710       -1.0345343669
 C          2.8798836546        0.2517752459       -0.0757262485
 C          1.4229605997        0.2388300791       -0.0721455826
 C          0.7159577166       -1.0003574130       -0.0958870706
 C          1.3795001437       -2.2253597477       -0.2209056866
 C          0.6920255007       -3.4337267796       -0.1656212739
 C         -0.6745190709       -3.4375579074        0.0224079493
 C         -1.3672551660       -2.2328505214        0.0900046967
 C         -0.7091438536       -1.0036903392       -0.0225581379
 C         -1.4202694399        0.2332064559       -0.0299886512
 C         -2.8770076561        0.2430310050       -0.0055612370
 C         -3.6215898697       -0.4410986965       -0.9743273697
 C         -4.9975173005       -0.3676765510       -0.9942252619
 C         -5.6682797899        0.3769149097       -0.0256118351
 N         -7.0636826186        0.5424400617       -0.0881692461
 C         -7.6924405097        1.7560553027       -0.2701294590
 C         -7.0056342723        3.0294633970       -0.4231980074
 C         -7.6018856696        4.1642640632        0.1272936983
 C         -6.9895986660        5.3973219128        0.0210315785
 C         -5.7769982027        5.5175132917       -0.6388223527
 C         -5.1934372332        4.4008570939       -1.2134239663
 C         -5.8023939408        3.1636611901       -1.1141362532
 N         -8.9966319247        1.6350572115       -0.2884787514
 C         -9.2547306489        0.3129345220       -0.1232902080
 C        -10.5227846433       -0.3331728021       -0.0933870627
 C        -11.7223929974        0.3516398540       -0.2545365528
 C        -12.9243582203       -0.3349713480       -0.2298235315
 C        -12.9418160013       -1.7027408559       -0.0426486078
 C        -11.7545605895       -2.4219949638        0.1288865604
 C        -11.7603350938       -3.8312285946        0.3365892682
 C        -10.6080309834       -4.5114853567        0.5307326274
 C         -9.3462931393       -3.8482228786        0.5288480912
 C         -8.1612293321       -4.5523773816        0.7618950634
 C         -6.9484710105       -3.8974657103        0.7847140471
 C         -6.8795967153       -2.5351439724        0.5475176033
 C         -8.0321503799       -1.7976008576        0.2813278740
 C         -9.2987898965       -2.4514895928        0.2968857199
 C        -10.5149497822       -1.7365361711        0.1044231935
 C         -8.0594643921       -0.3985460126        0.0162886589
 C         -4.9455231707        1.0288827319        0.9698868185
 C         -3.5697661526        0.9665893880        0.9729042246
 C         -0.7141238863        1.4741389806       -0.0646394996
 C         -1.3799967285        2.7007122323       -0.1642190619
 C         -0.6913081886        3.9085480951       -0.1146905093
 C          0.6791613965        3.9107307807        0.0414383168
 C          1.3730691276        2.7055035642        0.0804685131
 C          0.7125693599        1.4769432373       -0.0301557665
 C          3.6077381871       -0.4402716798        0.9002688641
 C          4.9825919043       -0.3640000127        0.9469137186
 C          7.6423209009        4.1752349058       -0.0642844636
 C          7.0418397796        5.4133110569        0.0506778027
 H          5.3407812764        6.5028053429        0.7653644281
 H          4.2546211441        4.5072737860        1.7283749139
 H          5.3230598611        2.3150051340        1.5609844942
 H         11.6870251919        1.3945724263        0.5042570315
 H         13.8432179302        0.1612167223        0.5064179784
 H         13.8618890827       -2.2760764822        0.1614091667
 H         12.6867261352       -4.3717547016       -0.2390905910
 H         10.5905186711       -5.5929715324       -0.6426737663
 H          8.1877176339       -5.6141545910       -0.9295849612
 H          6.0293710308       -4.4275620282       -1.0270052474
 H          5.9186631863       -2.0222706812       -0.6235867433
 H          5.5048914883        1.6184131680       -1.7481949693
 H          3.0450785431        1.4887226338       -1.8197358171
 H          2.4484810007       -2.2372057971       -0.3693865837
 H          1.2358321125       -4.3620432608       -0.2569873502
 H         -1.2143367376       -4.3690146441        0.1049876242
 H         -2.4358887356       -2.2510526451        0.2397393405
 H         -3.1037532667       -0.9899521667       -1.7470035738
 H         -5.5638899407       -0.8666770541       -1.7675536624
 H         -8.5463547089        4.0540569891        0.6370181999
 H         -7.4566505754        6.2684968205        0.4562385584
 H         -5.2942307991        6.4805487350       -0.7155207889
 H         -4.2596895031        4.4932748080       -1.7492589334
 H         -5.3499650208        2.3101664457       -1.5959923169
 H        -11.6879957831        1.4197203548       -0.4014826062
 H        -13.8528053607        0.2023436171       -0.3575130214
 H        -13.8817010608       -2.2361821413       -0.0222564765
 H        -12.7127678618       -4.3422252250        0.3424945319
 H        -10.6174294524       -5.5795043422        0.6971654469
 H         -8.2092608126       -5.6174931472        0.9370424814
 H         -6.0408803665       -4.4470797839        0.9881322775
 H         -5.9210923778       -2.0420060195        0.5824774524
 H         -5.4726336793        1.5898856025        1.7273810840
 H         -3.0118173795        1.4651388180        1.7512947551
 H         -2.4523296304        2.7174204720       -0.2865279779
 H         -1.2385761918        4.8368378264       -0.1838067940
 H          1.2224333143        4.8406217322        0.1197462914
 H          2.4451735794        2.7259406339        0.2041414950
 H          3.0764367128       -0.9973827024        1.6577431509
 H          5.5355130773       -0.8680651476        1.7266312364
 H          8.5988061489        4.0637538500       -0.5506413098
 H          7.5311172071        6.2873713693       -0.3530510777
