118
 energy: -187.390550340317 gnorm: 0.000054825343 xtb: 6.7.1 (edcfbbe)
C            5.78793597363720        5.52197456059138        0.63480947702800
C            5.19427515966519        4.40663031018389        1.20150355464456
C            5.80360028868497        3.16877776813255        1.11301899546174
C            7.01694499763599        3.03198506938200        0.44046568179559
C            7.70008577343497        1.75529316868814        0.29628047931580
N            9.00243220713755        1.62305746595125        0.33554874493517
C            9.25203426248971        0.29878067593140        0.16926008956486
C           10.51449051102339       -0.35998846317579        0.15991935911308
C           11.71750967881530        0.31136094700035        0.34734455378501
C           12.91250492167739       -0.38767045565570        0.34352195074573
C           12.91975551091669       -1.75462129801810        0.14989804903829
C           11.72911469487555       -2.46053735030409       -0.04801354044158
C           11.72466748622687       -3.86898382801440       -0.26272785618543
C           10.56963969898720       -4.53716132572338       -0.47989217739371
C            9.31422798894032       -3.86176781000642       -0.49554713394013
C            8.12631087652354       -4.55358586834563       -0.74868927231736
C            6.92024150697898       -3.88700547232030       -0.78717372264028
C            6.86110169382557       -2.52468223944681       -0.54740601661099
C            8.01655507729343       -1.79944528092397       -0.26192688934168
C            9.27677226096680       -2.46535915811960       -0.25948098067713
C           10.49618054020222       -1.76257564985275       -0.04341869759922
C            8.05411314392150       -0.40138589705671        0.00756726745380
N            7.06446359591014        0.54776483034801        0.10001586467511
C            5.66945000920583        0.39017494944549        0.01625080247638
C            4.96638280575331        1.03335579739008       -0.99773843000356
C            3.58982423277370        0.97320455155416       -1.02408390827802
C            2.88164155124104        0.26298298445694       -0.04933210988690
C            1.42210375954722        0.25280795452552       -0.04674422235985
C            0.71376013848856       -0.98828907898438       -0.07108184136036
C            1.37749955515384       -2.21196433334741       -0.18613660490933
C            0.68705549089738       -3.42111982557818       -0.13754685275892
C           -0.67979962810381       -3.42317965002126        0.03381970781955
C           -1.37227188009430       -2.21585020917666        0.09698710097784
C           -0.71076424898579       -0.98974784089457       -0.00486507421062
C           -1.42023331823926        0.25080536734054       -0.01489267207574
C           -2.87964799563533        0.26181013948089        0.00118429443200
C           -3.61540172413505       -0.40375606405560       -0.98506247164047
C           -4.99184811974844       -0.33292764096322       -1.01037193394657
C           -5.66796563330463        0.39248443273667       -0.03174350809151
N           -7.06381661206059        0.55190505170682       -0.09669759502166
C           -7.70015970072683        1.76222541297360       -0.27256689647687
C           -7.01687522244684        3.03825222784962       -0.42146955102894
C           -7.61226613050472        4.17059302572119        0.13463607885176
C           -6.99889414268325        5.40379985931490        0.03450908677478
C           -5.78622245014136        5.52682015627798       -0.62475042285241
C           -5.20363438872196        4.41272667845036       -1.20521819416352
C           -5.81392551666235        3.17569093024396       -1.11236659111625
N           -9.00332782712319        1.63307646102810       -0.28887840207061
C           -9.25283414121354        0.30824435573653       -0.12722026719641
C          -10.51664982998709       -0.34730247243250       -0.09759792757698
C          -11.72130042998794        0.32865536779321       -0.25571177434750
C          -12.91800806959977       -0.36703847392677       -0.23193071967911
C          -12.92523850799378       -1.73527230695300       -0.04760369759358
C          -11.73280796251990       -2.44590201324757        0.12036791242984
C          -11.72803011846647       -3.85594823718048        0.32423519977324
C          -10.57056422365845       -4.52914323489490        0.51068296146569
C           -9.31310601522670       -3.85742141070761        0.50483063239815
C           -8.12210894716711       -4.55501138224509        0.72553653660314
C           -6.91359307129877       -3.89208987253753        0.74477209980025
C           -6.85571300069833       -2.52752743202850        0.51780970925979
C           -8.01470343689022       -1.79636636316627        0.26340459975024
C           -9.27656316284330       -2.45902591374186        0.28059177036432
C          -10.49819501963183       -1.75133526199835        0.09532072785156
C           -8.05376859250604       -0.39582565353354        0.00705309372400
C           -4.95256685562526        1.02832732325093        0.97831947236280
C           -3.57598536103911        0.96661763709211        0.98844129447081
C           -0.71251513737322        1.49360891232900       -0.04741984945547
C           -1.37775398666846        2.71862088174724       -0.14387808213208
C           -0.68642930342442        3.92735234147792       -0.09826390235022
C            0.68302654999507        3.92815357633707        0.05046045560133
C            1.37635163132782        2.72042566633407        0.09200530772961
C            0.71320628788403        1.49464566002450       -0.00964799531571
C            3.60548089186911       -0.41070839764660        0.94030197955221
C            4.98150143501678       -0.34170094472905        0.98181595193439
C            7.62310806333189        4.16543019149585       -0.10151899414809
C            7.01053041643391        5.39938663499185       -0.00593198204282
H            5.30498292450707        6.48559211280832        0.70274886647857
H            4.25246683365386        4.50043809832652        1.72290666040226
H            5.34265331556643        2.31648076788005        1.58906854393687
H           11.69163034297286        1.37915076473214        0.49849485716680
H           13.84375926292831        0.13933115453604        0.49272549613519
H           13.85434863586833       -2.29763564927226        0.14558173073521
H           12.67221137048664       -4.38908792667089       -0.25465904833214
H           10.57145030606608       -5.60440033419810       -0.65165555068938
H            8.16659982275296       -5.61858974903166       -0.92660514575864
H            6.01038167578842       -4.42731044413377       -1.00541660458738
H            5.90789101085406       -2.02227822279602       -0.59549351519828
H            5.50764845232056        1.58626746765990       -1.75110564744293
H            3.04603774882540        1.46508015872790       -1.81671360333780
H            2.44819216752416       -2.22546831594592       -0.32107449942353
H            1.23168114113215       -4.34949935781104       -0.22209758398924
H           -1.22288619112751       -4.35339502880105        0.10743501195767
H           -2.44275788460502       -2.23292884761218        0.23296024201999
H           -3.09205891956792       -0.93939455372314       -1.76329340689882
H           -5.55383954256915       -0.82084046743632       -1.79377494057254
H           -8.55667918664201        4.05864377227892        0.64399029941481
H           -7.46533201846221        6.27323302413140        0.47384464285561
H           -5.30251889618323        6.48980520677455       -0.69624447051080
H           -4.26990044156786        4.50692451122961       -1.74088352085058
H           -5.36216402144094        2.32459346229024       -1.59921868269615
H          -11.69541956032474        1.39739368997152       -0.39998825547842
H          -13.85060853708978        0.16357207620676       -0.35816253495797
H          -13.86111978854988       -2.27571003151905       -0.02759362534320
H          -12.67710564579527       -4.37323955066925        0.33281377687213
H          -10.57181480079324       -5.59774988212882        0.67372421654028
H           -8.16169860681530       -5.62164467507859        0.89356333334614
H           -6.00077246483248       -4.43699383381325        0.93775795482620
H           -5.90024747577520       -2.02831344385786        0.55117318014801
H           -5.48456527726708        1.57685702675025        1.74143470977000
H           -3.02254871655520        1.45319844249736        1.77765656503341
H           -2.45078195265507        2.73670036320735       -0.25961205458583
H           -1.23378390859325        4.85558892507696       -0.16599576958203
H            1.22882359866719        4.85706201287444        0.12153107965127
H            2.44924280982254        2.73989176380132        0.20865258208684
H            3.07257835023568       -0.95175896691464        1.70823895144748
H            5.53410643962248       -0.83603644053987        1.76785047527889
H            8.57515165947684        4.05373542757288       -0.59653220937134
H            7.48538663799064        6.26969517123486       -0.43437923343506
