  45
        -74.80904737
 C         -4.7171715892        3.5818952837        0.3953405624
 C         -3.3331032862        3.6000570328        0.4689061638
 C         -2.6069725095        2.4318704109        0.3403316171
 C         -3.2517915878        1.2137332840        0.1165756998
 C         -4.6579746675        1.2010682073        0.0983512802
 C         -5.3785781616        2.3781177751        0.2260020308
 O         -5.3724348519        0.0448201194       -0.0133524082
 C         -4.6795209890       -1.1221826251       -0.1453185200
 C         -5.4205168614       -2.2861943922       -0.2747616002
 C         -4.7807572814       -3.4985184565       -0.4648570001
 C         -3.3980896901       -3.5383215828       -0.5565216453
 C         -2.6516539850       -2.3836413097       -0.4240729345
 C         -3.2741233135       -1.1575949946       -0.1802536870
 N         -2.5533636319        0.0209049131       -0.0295759460
 C         -1.1522156406        0.0047892573       -0.0204221534
 C         -0.4544184967       -0.7914848712        0.9141500769
 C          0.9055179190       -0.7954202277        0.9431063238
 C          1.6656793121       -0.0236089493        0.0095453000
 C          3.0495431057       -0.0142071892        0.0035131505
 N          3.8191846185        0.6737363072       -0.8312626364
 C          5.1124987269        0.4975634222       -0.6091492466
 C          6.1648497671        1.0941968260       -1.3336154600
 C          7.4626824450        0.8154970452       -0.9876848404
 C          7.7685453015       -0.0488574569        0.0696427027
 C          6.7600523977       -0.6557662570        0.8043797180
 C          5.4505487881       -0.3874540594        0.4721108292
 S          4.0076445675       -1.0007631317        1.2069335632
 C          0.9395012808        0.7606695809       -0.9457722586
 C         -0.4192594019        0.7835674249       -0.9449525008
 H         -5.2816778517        4.4957023586        0.4894186655
 H         -2.8108119599        4.5292856972        0.6343576321
 H         -1.5326762456        2.4528850647        0.4239870952
 H         -6.4549011505        2.3226433051        0.1981706411
 H         -6.4953292062       -2.2140159302       -0.2323237357
 H         -5.3610603536       -4.4021340386       -0.5608451750
 H         -2.8935348803       -4.4741455096       -0.7389932147
 H         -1.5787247467       -2.4200314183       -0.5204154438
 H         -1.0196800834       -1.3604142522        1.6386343144
 H          1.4364654253       -1.3743435016        1.6829513620
 H          5.9216502396        1.7589935657       -2.1467152205
 H          8.2712743903        1.2712030070       -1.5406182315
 H          8.7999977041       -0.2467942671        0.3173696327
 H          6.9925928530       -1.3236182185        1.6197941053
 H          1.5121366089        1.3189899711       -1.6674913980
 H         -0.9593553426        1.3597738127       -1.6827860819
