45
 energy: -74.918369396866 gnorm: 0.000054097632 xtb: 6.7.1 (edcfbbe)
C           -4.59155884230692        3.57896140623180        0.08204693967953
C           -3.21382027937758        3.61189989218194        0.01085600316870
C           -2.48594923968962        2.43133636944356       -0.02967318683204
C           -3.13029684639134        1.20163414965252        0.00015106376882
C           -4.52981715880737        1.17722625524652        0.07218494750759
C           -5.24931439290265        2.35584911764555        0.11272638199327
O           -5.24527343485745       -0.00008501744562        0.10522773234772
C           -4.52973823198307       -1.17734564923543        0.07208163009198
C           -5.24916065895946       -2.35601992443297        0.11245079331666
C           -4.59132688552233       -3.57908580044081        0.08159979493560
C           -3.21358712862982       -3.61192562250225        0.01038430145624
C           -2.48579099164344       -2.43131015273005       -0.02997559420906
C           -3.13021478164195       -1.20165331450123        0.00007479581186
N           -2.42803545452263        0.00001534207807       -0.04103754002919
C           -1.00864534933973        0.00006753803169       -0.09160392260146
C           -0.27014253274569       -0.00069127063492        1.08794363565923
C            1.10828734993708       -0.00062073224029        1.03929174388877
C            1.77020753520111        0.00018639489576       -0.19219554953582
C            3.21590713375121        0.00020638658471       -0.21611166715301
N            3.95866172400676       -0.00043173663221        0.83046159648176
C            5.28636712295921       -0.00028084098399        0.53723289973046
C            6.32949383785281       -0.00088819321874        1.46183696814916
C            7.62742209814453       -0.00067264650669        0.99905402673397
C            7.90620206954684        0.00013748796868       -0.36753389058370
C            6.89004140241538        0.00076530321487       -1.30319713775199
C            5.58305082331768        0.00054356114754       -0.84581166147632
S            4.10605069529439        0.00113015117664       -1.75816114964624
C            1.02218427387049        0.00093938732872       -1.36983514043403
C           -0.35741777644683        0.00088612371315       -1.32028549402146
H           -5.16320579602106        4.49323758931270        0.11378989903468
H           -2.69057384295673        4.55562408254582       -0.01357418931554
H           -1.40859356261423        2.46179126330686       -0.08411641160032
H           -6.32523141645234        2.29831002194445        0.16811996122628
H           -6.32508240882503       -2.29855700812772        0.16783291043628
H           -5.16291591996778       -4.49340312664097        0.11320158424877
H           -2.69028272835005       -4.55561316006252       -0.01422109160526
H           -1.40843667863110       -2.46169152703731       -0.08448951853729
H           -0.78525091390421       -0.00132565175081        2.03694265192432
H            1.69596093563113       -0.00119774109636        1.94347844810681
H            6.10098521217298       -0.00150775049472        2.51579161578216
H            8.44460472676373       -0.00113432352465        1.70454342710701
H            8.93287484077328        0.00028275147842       -0.70104552321414
H            7.10207126454188        0.00138744587066       -2.36118882188185
H            1.52732872404375        0.00155019835021       -2.32465917438964
H           -0.93803851672521        0.00147397089112       -2.23058808777090
