  51
  -78.6414927864000       0.359457799534394      !
 C         -4.6756327458        0.9075841597       -2.5363258258
 C         -3.4960325286        0.5429638140       -3.1690312938
 C         -2.3728782751        0.1929878201       -2.4322397100
 C         -2.4557722166        0.2166739693       -1.0569490207
 C         -3.6464205710        0.5847376059       -0.4121225287
 C         -4.7636849066        0.9321876304       -1.1537147541
 C         -3.4320897511        0.5155298053        1.0241737467
 C         -4.2792662115        0.7761693446        2.0887373733
 C         -3.7938949875        0.6168716941        3.3767295970
 C         -2.4879746258        0.2058484660        3.6006935067
 C         -1.6325346263       -0.0547824446        2.5389415159
 C         -2.1120349171        0.1024475230        1.2570880175
 C         -1.3857319425       -0.1180358488       -0.0501066439
 C         -0.8314179225       -1.5126090294       -0.1925760723
 C         -1.5175244130       -2.6903542337       -0.2324841385
 C         -0.8044512850       -3.8857990295       -0.3905393263
 C          0.5871755310       -3.8605657815       -0.5464134539
 C          1.2942993936       -2.6874811212       -0.5123579409
 C          0.6040643944       -1.4663805667       -0.2870360407
 C          1.0330680081       -0.1456399798       -0.1741364697
 C         -0.1378369727        0.7214322074       -0.1660618520
 C         -0.0691755754        2.0642365504       -0.3275985443
 C          1.2003093916        2.6947709170       -0.4628183178
 C          2.3330847456        1.9042408469       -0.3711090664
 N          3.6427194344        2.3268747264       -0.3862701602
 C          4.4672797501        1.2733799617       -0.1338345381
 C          5.8468073616        1.2415150947       -0.0275515091
 C          6.4418328572        0.0352450045        0.2938953078
 C          5.6621976411       -1.1068964799        0.5323313319
 C          4.2931537647       -1.0903445466        0.4240439424
 C          3.6523422778        0.1023586809        0.0452880154
 C          2.3147641074        0.5034592242       -0.1564759793
 H         -5.5370444163        1.1751037005       -3.1309975432
 H         -3.4520641976        0.5308879578       -4.2481789996
 H         -1.4538208537       -0.0916198551       -2.9235282378
 H         -5.6844563105        1.2163926456       -0.6660948903
 H         -5.2974333579        1.0949613659        1.9200851187
 H         -4.4410104524        0.8139021135        4.2192050617
 H         -2.1330702631        0.0866198263        4.6138638004
 H         -0.6152804266       -0.3746015841        2.7120565702
 H         -2.5949131578       -2.7047022498       -0.1487926840
 H         -1.3313583941       -4.8266680901       -0.4181548820
 H          1.1086349959       -4.7926462211       -0.7134702606
 H          2.3561506256       -2.6790246989       -0.6923352799
 H         -0.9652045167        2.6657714534       -0.3555831903
 H          1.2702172311        3.7635287495       -0.5851965345
 H          3.9405587870        3.2743954336       -0.5513001206
 H          6.4352357707        2.1347014867       -0.1770045396
 H          7.5148803034       -0.0265130858        0.3876354219
 H          6.1605570852       -2.0217189796        0.8189987467
 H          3.7172962011       -1.9712601033        0.6540208314
  51
  -78.6406211360000       0.142910823930907      !
 C         -4.9479593321        0.8847312147       -2.3243270709
 C         -3.8393573112        0.5495684232       -3.0879222010
 C         -2.6339460088        0.2167592418       -2.4848061546
 C         -2.5606922775        0.2290726006       -1.1085235687
 C         -3.6800207756        0.5705744475       -0.3321580520
 C         -4.8801379719        0.8991440293       -0.9405514532
 C         -3.3079301592        0.5023829486        1.0716677188
 C         -4.0318676678        0.7514124448        2.2264579280
 C         -3.3982501287        0.6074942732        3.4503692517
 C         -2.0672332491        0.2233117696        3.5243739525
 C         -1.3356517717       -0.0286923053        2.3721241759
 C         -1.9643073139        0.1123409666        1.1546631286
 C         -1.3874468413       -0.1025066542       -0.2301161510
 C         -0.8455823689       -1.5031502951       -0.3782685101
 C         -1.5361728105       -2.6755374106       -0.4636213341
 C         -0.8209201587       -3.8757412637       -0.5694824196
 C          0.5788500787       -3.8634251357       -0.6135616961
 C          1.2916474909       -2.6956424173       -0.5343161980
 C          0.5932130173       -1.4685341010       -0.3835945724
 C          1.0215398909       -0.1467519522       -0.2936307464
 C         -0.1408856911        0.7247698175       -0.4124496471
 C         -0.0449039623        2.0454925625       -0.6937444665
 C          1.2399488493        2.6536626045       -0.7977534736
 C          2.3549271484        1.8749370803       -0.5343508131
 N          3.6636801515        2.2919203073       -0.4404370875
 C          4.4421035416        1.2631539469       -0.0022990544
 C          5.7953675980        1.2396632148        0.2867161454
 C          6.3284171017        0.0649080002        0.7859908070
 C          5.5150994717       -1.0568080928        1.0086696543
 C          4.1728032523       -1.0508362390        0.7184115789
 C          3.6012229575        0.1107863291        0.1714270177
 C          2.3010745696        0.4969691900       -0.2118643793
 H         -5.8760310537        1.1379079934       -2.8160638223
 H         -3.9165503312        0.5463666203       -4.1653170270
 H         -1.7715299418       -0.0469558468       -3.0794885914
 H         -5.7453305751        1.1613438215       -0.3497732377
 H         -5.0679358046        1.0518969877        2.1760894543
 H         -3.9473354409        0.7971933178        4.3612549084
 H         -1.5945771168        0.1191632717        4.4899909945
 H         -0.2990877634       -0.3276809067        2.4270726483
 H         -2.6167618628       -2.6835113764       -0.4518827878
 H         -1.3515178679       -4.8129070362       -0.6325302575
 H          1.1031856500       -4.8016420518       -0.7296651067
 H          2.3654934647       -2.6947734831       -0.6248359416
 H         -0.9286031103        2.6513113444       -0.8261972792
 H          1.3284092907        3.7081949399       -1.0038325159
 H          3.9883114436        3.2236350224       -0.6412135618
 H          6.4092100551        2.1167745756        0.1442654647
 H          7.3782154926        0.0136482377        1.0301547759
 H          5.9636975228       -1.9449843889        1.4298534231
 H          3.5603062689       -1.9116604975        0.9315703933
  51
  -78.6405116762000       0.127280209647509      !
 C         -3.6725832427        0.9906976958       -3.0324447433
 C         -2.3608461764        0.6043867922       -3.2666104529
 C         -1.5376381526        0.2141243880       -2.2194941605
 C         -2.0562853973        0.2182647016       -0.9433683916
 C         -3.3803278683        0.6078753842       -0.6988453822
 C         -4.1958198413        0.9965798737       -1.7494102052
 C         -3.6287428277        0.5171330406        0.7307039717
 C         -4.7713814205        0.7645096939        1.4735043894
 C         -4.7223898271        0.5823865853        2.8461246802
 C         -3.5548857891        0.1635432518        3.4675823988
 C         -2.4060151643       -0.0866382483        2.7293734258
 C         -2.4492142954        0.0917871465        1.3633282198
 C         -1.3603124214       -0.1403175679        0.3541738127
 C         -0.8078235735       -1.5438512638        0.3269757858
 C         -1.4866448607       -2.7246794419        0.3880363741
 C         -0.7637890140       -3.9238789637        0.3370876036
 C          0.6339821563       -3.9044454740        0.2512646584
 C          1.3355138944       -2.7286733355        0.1923999707
 C          0.6252409910       -1.4993148985        0.2027363020
 C          1.0434370655       -0.1713235609        0.1861042366
 C         -0.1011361308        0.6775683355        0.4927601288
 C          0.0230216089        1.9712701326        0.8716663474
 C          1.3120904192        2.5790122607        0.8965783793
 C          2.3948651111        1.8342145175        0.4580260887
 N          3.6872276751        2.2681587133        0.2653064925
 C          4.4167342636        1.2847139099       -0.3323369251
 C          5.7333396848        1.2953056572       -0.7588810734
 C          6.2118460193        0.1691519439       -1.4040606127
 C          5.3796141074       -0.9372595673       -1.6333922425
 C          4.0741011979       -0.9655038397       -1.2081332300
 C          3.5623213395        0.1434830156       -0.5129278695
 C          2.3082511309        0.4868997698        0.0308750769
 H         -4.2934109541        1.2924910502       -3.8634883514
 H         -1.9751959744        0.6085789394       -4.2755459442
 H         -0.5151211662       -0.0843684087       -2.3991916301
 H         -5.2171343335        1.3006158623       -1.5738758853
 H         -5.6832348619        1.0875015761        0.9932476787
 H         -5.6052400212        0.7666035497        3.4410190864
 H         -3.5415730840        0.0277473504        4.5390800713
 H         -1.4980794258       -0.4168468800        3.2127237022
 H         -2.5633601896       -2.7400894286        0.4788813951
 H         -1.2854030787       -4.8671233245        0.3813328869
 H          1.1673860415       -4.8447151145        0.2482122605
 H          2.4131504734       -2.7261758220        0.1819062976
 H         -0.8427736699        2.5574211914        1.1405515912
 H          1.4208223363        3.6138142709        1.1788782125
 H          4.0310845665        3.1829836736        0.5074498656
 H          6.3590413215        2.1627232521       -0.6090683132
 H          7.2309053977        0.1463719463       -1.7579496503
 H          5.7821308656       -1.7842600598       -2.1700520421
 H          3.4422533183       -1.8107723308       -1.4271359072
  51
  -78.6404271305000       0.116387507720506      !
 C         -3.6454996475        0.9913003733       -3.0360416366
 C         -2.3349542159        0.5959149744       -3.2619528019
 C         -1.5205834956        0.2018356502       -2.2094077226
 C         -2.0467411436        0.2119040496       -0.9364037532
 C         -3.3694857148        0.6106404635       -0.7000739817
 C         -4.1762354139        1.0028477912       -1.7561223631
 C         -3.6264618159        0.5237563545        0.7282065482
 C         -4.7700282766        0.7857418503        1.4645562014
 C         -4.7292724614        0.6090755769        2.8381862170
 C         -3.5692044797        0.1801066359        3.4667523968
 C         -2.4194912649       -0.0850361824        2.7349550975
 C         -2.4541646326        0.0888114038        1.3680685014
 C         -1.3604482372       -0.1491627491        0.3658724553
 C         -0.8077496779       -1.5523822415        0.3345151044
 C         -1.4858552184       -2.7340751414        0.3854218509
 C         -0.7623977312       -3.9324347700        0.3223501889
 C          0.6352527149       -3.9116485779        0.2353995554
 C          1.3362421231       -2.7350195440        0.1867283608
 C          0.6251944530       -1.5062446433        0.2076800629
 C          1.0425917162       -0.1779937987        0.1971912426
 C         -0.1018815725        0.6685589938        0.5105823769
 C          0.0221628951        1.9598301089        0.8975962934
 C          1.3107720516        2.5685893970        0.9220859020
 C          2.3923616658        1.8281306143        0.4730741239
 N          3.6821917797        2.2661656251        0.2727491777
 C          4.4090561683        1.2879319377       -0.3366563358
 C          5.7212987443        1.3049138669       -0.7763947079
 C          6.1966989302        0.1837101755       -1.4323703114
 C          5.3660521056       -0.9245800946       -1.6583144112
 C          4.0648999688       -0.9591596224       -1.2202164802
 C          3.5562328242        0.1453511034       -0.5157621109
 C          2.3056847610        0.4828752842        0.0396910685
 H         -4.2595076874        1.2954471724       -3.8712772012
 H         -1.9432675693        0.5960680424       -4.2685693432
 H         -0.4987981142       -0.1031508696       -2.3823849658
 H         -5.1967212984        1.3134029831       -1.5872655057
 H         -5.6754111578        1.1187097008        0.9789482026
 H         -5.6125682471        0.8062902628        3.4283118102
 H         -3.5620304762        0.0494629251        4.5389714702
 H         -1.5172996710       -0.4224464065        3.2241194300
 H         -2.5626443998       -2.7510758265        0.4757621362
 H         -1.2836649450       -4.8763078202        0.3569689633
 H          1.1690128774       -4.8516402209        0.2225864061
 H          2.4139171339       -2.7316529648        0.1747995223
 H         -0.8433840414        2.5436518092        1.1721897560
 H          1.4193598173        3.6018253972        1.2100590433
 H          4.0251825163        3.1811308996        0.5155667270
 H          6.3453983535        2.1739878975       -0.6294656678
 H          7.2121394244        0.1662136523       -1.7969369802
 H          5.7665378230       -1.7684098674       -2.2015626225
 H          3.4341635066       -1.8063624855       -1.4348932419
  51
  -78.6403198584000       0.103898080630775      !
 C         -3.6046151492        1.0428200160       -3.0335671734
 C         -2.3107394656        0.5956655980       -3.2591827744
 C         -1.5136986008        0.1675702182       -2.2067701524
 C         -2.0410600424        0.1940678806       -0.9344180408
 C         -3.3483301676        0.6414637002       -0.6988024616
 C         -4.1368428602        1.0699493234       -1.7544818111
 C         -3.6132673253        0.5527537137        0.7278947825
 C         -4.7488872465        0.8510681700        1.4626935879
 C         -4.7212318193        0.6571361321        2.8342934848
 C         -3.5822553680        0.1743665381        3.4622635934
 C         -2.4398173648       -0.1252058520        2.7323448531
 C         -2.4610302552        0.0669956039        1.3676521954
 C         -1.3667503291       -0.1837727529        0.3695857102
 C         -0.8057944290       -1.5824039200        0.3370018371
 C         -1.4752021093       -2.7690621044        0.3894067760
 C         -0.7436008288       -3.9624294465        0.3227887178
 C          0.6534807077       -3.9321361906        0.2296890720
 C          1.3461852205       -2.7506412461        0.1797519044
 C          0.6269215129       -1.5268160122        0.2063958770
 C          1.0363908225       -0.1960132289        0.1997048381
 C         -0.1126028395        0.6416566205        0.5193303791
 C          0.0025678581        1.9315716502        0.9133359141
 C          1.2867205849        2.5488691033        0.9389378638
 C          2.3721643977        1.8183028172        0.4828077750
 N          3.6576892126        2.2675105665        0.2802406319
 C          4.3897102163        1.2986626113       -0.3377530873
 C          5.6995548420        1.3293336459       -0.7838219869
 C          6.1810745013        0.2159638616       -1.4486389348
 C          5.3587866053       -0.8981411752       -1.6763809620
 C          4.0601923596       -0.9462771247       -1.2318977713
 C          3.5455003498        0.1501907821       -0.5194411595
 C          2.2942411183        0.4748649226        0.0423580449
 H         -4.2042751024        1.3753374556       -3.8684335808
 H         -1.9180096559        0.5831812373       -4.2653027669
 H         -0.5041147756       -0.1757956638       -2.3792819788
 H         -5.1442333235        1.4207191269       -1.5859165788
 H         -5.6380706792        1.2258060745        0.9774876684
 H         -5.5982123381        0.8835995896        3.4233248429
 H         -3.5858605833        0.0288627231        4.5325728822
 H         -1.5532873552       -0.5020276981        3.2213167965
 H         -2.5515021065       -2.7938941224        0.4832542992
 H         -1.2581836480       -4.9099562297        0.3581700279
 H          1.1935150243       -4.8684989700        0.2124940876
 H          2.4237599810       -2.7397890835        0.1630818372
 H         -0.8669442248        2.5078123097        1.1914807696
 H          1.3889227344        3.5812724909        1.2322568343
 H          3.9940449368        3.1840753033        0.5263480211
 H          6.3169645356        2.2027993033       -0.6346677172
 H          7.1944186099        0.2095389302       -1.8191589367
 H          5.7636857521       -1.7354395344       -2.2263297765
 H          3.4356568562       -1.7977146733       -1.4479932702
  51
  -78.6401805889000       8.966102387677254E-002 !
 C         -4.9660019359        0.9354763388       -2.2839390914
 C         -3.9100598670        0.4888097024       -3.0650888285
 C         -2.7078011425        0.1062706016       -2.4854082099
 C         -2.5858310385        0.1768791838       -1.1143125391
 C         -3.6546524310        0.6232137797       -0.3196665452
 C         -4.8497563252        1.0071854353       -0.9051515315
 C         -3.2468708219        0.5750614254        1.0748772786
 C         -3.9137850543        0.9200437758        2.2393715558
 C         -3.2592214869        0.7618511505        3.4503760641
 C         -1.9643016427        0.2663621319        3.5027107484
 C         -1.2878233884       -0.0769285897        2.3405594012
 C         -1.9365978136        0.0809138901        1.1355891053
 C         -1.4014962197       -0.1738340104       -0.2597234779
 C         -0.8416650773       -1.5629728515       -0.4215973347
 C         -1.5137113086       -2.7442097318       -0.5311756399
 C         -0.7800290460       -3.9318961596       -0.6532281294
 C          0.6196486868       -3.8991212344       -0.6872388565
 C          1.3148564698       -2.7225862392       -0.5836501429
 C          0.5973043124       -1.5084100735       -0.4207032165
 C          1.0070586095       -0.1813196563       -0.3204280200
 C         -0.1664074777        0.6739465822       -0.4450296334
 C         -0.0895817629        1.9984836794       -0.7136068360
 C          1.1861130680        2.6275945625       -0.7947093793
 C          2.3093344361        1.8646958407       -0.5177094767
 N          3.6074932575        2.3044343865       -0.3897534151
 C          4.3949967686        1.2851513565        0.0541959766
 C          5.7407274649        1.2845789531        0.3776399976
 C          6.2842074647        0.1140727517        0.8753946007
 C          5.4886224484       -1.0269746258        1.0604453386
 C          4.1540589907       -1.0434668582        0.7361625506
 C          3.5729096931        0.1148747039        0.1930237535
 C          2.2739261336        0.4823917368       -0.2130099969
 H         -5.8914510853        1.2292265491       -2.7577625146
 H         -4.0257541868        0.4386763819       -4.1378739770
 H         -1.8856392502       -0.2411515668       -3.0940081064
 H         -5.6755587349        1.3512633961       -0.3001098219
 H         -4.9219299836        1.3058995996        2.2060820600
 H         -3.7635115814        1.0267022352        4.3683873434
 H         -1.4757241075        0.1492334790        4.4588860649
 H         -0.2765515640       -0.4549091479        2.3781536714
 H         -2.5940824143       -2.7691278951       -0.5250686829
 H         -1.2964029290       -4.8755097987       -0.7356095045
 H          1.1582419353       -4.8276494848       -0.8153764850
 H          2.3892688297       -2.7042254528       -0.6668835261
 H         -0.9816914288        2.5910674014       -0.8492809383
 H          1.2606064590        3.6854751772       -0.9886148039
 H          3.9181473284        3.2451871148       -0.5693200950
 H          6.3399691528        2.1756916819        0.2627571222
 H          7.3281540378        0.0803966408        1.1461419764
 H          5.9442120067       -1.9118395109        1.4810457722
 H          3.5540328043       -1.9196611029        0.9205556885
  51
  -78.6398073385000       6.040455465913619E-002 !
 C         -5.0288214274        0.9013819199       -2.2302023694
 C         -3.9757397241        0.5016171976       -3.0400581683
 C         -2.7508960830        0.1457631444       -2.4914252902
 C         -2.6021502763        0.1977692840       -1.1220226413
 C         -3.6670286422        0.6003694839       -0.2988295515
 C         -4.8857069092        0.9551756247       -0.8531167698
 C         -3.2282624939        0.5484621349        1.0861828485
 C         -3.8796325200        0.8597226133        2.2689357751
 C         -3.1924092040        0.7130336890        3.4631816036
 C         -1.8800259636        0.2632692611        3.4812405984
 C         -1.2200493585       -0.0484683040        2.3008861228
 C         -1.9020259178        0.0966149374        1.1127928024
 C         -1.3957180576       -0.1442622857       -0.2967349322
 C         -0.8470235053       -1.5393770709       -0.4579739824
 C         -1.5264707432       -2.7150554214       -0.5787555172
 C         -0.7993179967       -3.9080564038       -0.6872086617
 C          0.6009674075       -3.8866483770       -0.6917946292
 C          1.3036270678       -2.7155422861       -0.5769598320
 C          0.5918597396       -1.4956185517       -0.4349612156
 C          1.0086974639       -0.1704664814       -0.3428244500
 C         -0.1566195811        0.6915968464       -0.4994219030
 C         -0.0620649346        2.0068242754       -0.8047967509
 C          1.2216768447        2.6210917905       -0.8858433650
 C          2.3336490163        1.8576574487       -0.5671150064
 N          3.6331364491        2.2885173200       -0.4206604418
 C          4.3992458609        1.2749047216        0.0722525597
 C          5.7352905252        1.2701662214        0.4336003155
 C          6.2515446279        0.1094600745        0.9811686342
 C          5.4399003311       -1.0186001040        1.1759705482
 C          4.1153843668       -1.0322099118        0.8128089476
 C          3.5628262487        0.1164027906        0.2215016922
 C          2.2785697518        0.4846780843       -0.2264506152
 H         -5.9730409720        1.1725111221       -2.6798639080
 H         -4.1120670856        0.4657917214       -4.1110054217
 H         -1.9318135264       -0.1670850891       -3.1225528971
 H         -5.7082710218        1.2651419694       -0.2256570582
 H         -4.9003705396        1.2122963689        2.2623474714
 H         -3.6838224209        0.9529864056        4.3948910180
 H         -1.3649060876        0.1565312615        4.4246217681
 H         -0.1966731949       -0.3940951393        2.3121755765
 H         -2.6069252864       -2.7317948748       -0.5919750281
 H         -1.3213023652       -4.8476874193       -0.7792134806
 H          1.1343651024       -4.8201017588       -0.8050374948
 H          2.3799236619       -2.7055675493       -0.6353181683
 H         -0.9456287163        2.6057453730       -0.9661864676
 H          1.3083582157        3.6728187163       -1.1064780821
 H          3.9576491144        3.2210793279       -0.6175626848
 H          6.3475597476        2.1512890708        0.3106023607
 H          7.2866395624        0.0742014522        1.2839665632
 H          5.8745713526       -1.8951741321        1.6343588587
 H          3.5003920025       -1.8970367452        1.0023942760
