  115
       -171.88530930
 C          1.1741870244       -8.7215750207       -3.4030638265
 C         -0.1305255472       -7.9399524272       -3.5789574333
 C         -1.2572982125       -8.7281301134       -2.8937063203
 C         -0.4209537012       -7.8280376891       -5.0833400860
 C         -0.0653159576       -6.5489393299       -2.9791861359
 C          1.0604897444       -6.0426261652       -2.3270896959
 C          1.0807938337       -4.7760131612       -1.7946064209
 C         -0.0376449557       -3.9155182367       -1.8666582689
 C         -0.0252739172       -2.6083471604       -1.2867040697
 C          1.1924205356       -1.9359333365       -0.9842801764
 C          1.2212341052       -0.6838867681       -0.4428959453
 N          2.4434202384       -0.0636619299       -0.1517003933
 C          3.4589785766       -0.6119597791        0.5983355022
 C          3.5382808391       -1.8560295286        1.2108412539
 C          4.6800179232       -2.1540823398        1.9252014769
 C          5.7359180724       -1.2406303265        2.0567046434
 C          6.9319216152       -1.6033551880        2.8264668648
 C          7.4792878263       -2.8823477046        2.7337630162
 C          8.6071512722       -3.2202246531        3.4571292778
 C          9.2053546426       -2.2899688438        4.2910106447
 C          8.6691415597       -1.0169196545        4.3937352725
 C          7.5452457237       -0.6746256499        3.6664106380
 C          5.6369567464        0.0167864850        1.4630116848
 C          4.5047884066        0.3328674414        0.7362125105
 C          4.0824896581        1.5102694154        0.0225217363
 C          4.6627810304        2.7435654428       -0.2052310755
 C          3.9728587504        3.6893048424       -0.9619408619
 C          4.5522628850        5.0173323806       -1.1951793848
 C          5.9119618171        5.1667021880       -1.4648238316
 C          6.4527771138        6.4193565010       -1.6841202268
 C          5.6477841068        7.5453494375       -1.6302058926
 C          4.2962723408        7.4097792573       -1.3580528166
 C          3.7513936751        6.1577568920       -1.1461902977
 C          2.7230167400        3.3637778454       -1.5080330582
 C          2.1350394739        2.1343261913       -1.3052656212
 C          2.8039814835        1.2144497038       -0.5082411480
 C          0.0073801654        0.0161216961       -0.1099866397
 C          0.0241333704        1.1710112886        0.6450959459
 N          0.0396467724        2.1481736960        1.2712661619
 C         -1.2234047866       -0.6495562340       -0.4486156751
 N         -2.4302363244       -0.0076175030       -0.1367556946
 C         -3.4523656192       -0.5446153796        0.6125654417
 C         -3.5554592545       -1.7954339330        1.2078754998
 C         -4.7020359448       -2.0807203512        1.9195820089
 C         -5.7399360031       -1.1489257737        2.0656517992
 C         -6.9455039902       -1.5020389593        2.8248123267
 C         -7.5131993515       -2.7705290250        2.7102235715
 C         -8.6519910407       -3.0998651710        3.4202476400
 C         -9.2414636617       -2.1715453541        4.2625123684
 C         -8.6849625811       -0.9091821438        4.3873924435
 C         -7.5498940206       -0.5753294381        3.6735069699
 C         -5.6154646286        0.1155488605        1.4921000099
 C         -4.4780137236        0.4195698963        0.7683071691
 C         -4.0350987254        1.5976377471        0.0687074884
 C         -4.5925105957        2.8446089187       -0.1414642188
 C         -3.8888944365        3.7852462916       -0.8917935062
 C         -4.4450812312        5.1254762725       -1.1114151368
 C         -5.8027828942        5.3009509717       -1.3751565962
 C         -6.3215727982        6.5643201440       -1.5858936856
 C         -5.4961523248        7.6752036782       -1.5291696351
 C         -4.1465580761        7.5137693138       -1.2619832680
 C         -3.6237375778        6.2510184129       -1.0584187122
 C         -2.6482246898        3.4420149251       -1.4479916648
 C         -2.0830651928        2.1992597583       -1.2626406735
 C         -2.7658021809        1.2827306187       -0.4732781767
 C         -1.2253642572       -1.8948957200       -1.0063469194
 C         -1.1713613555       -4.4374684995       -2.5305461320
 C         -1.1766805103       -5.7010407845       -3.0624446338
 H          2.0026080242       -8.2143324156       -3.8923117880
 H          1.4105704131       -8.8565778616       -2.3500668991
 H          1.0707234031       -9.7071863731       -3.8528251482
 H         -2.2203007133       -8.2456227968       -3.0363994371
 H         -1.0677878485       -8.8011833593       -1.8246191746
 H         -1.3151327746       -9.7341030755       -3.3046118499
 H         -1.3723315806       -7.3368601580       -5.2676966515
 H          0.3607910722       -7.2524011340       -5.5748988667
 H         -0.4560850999       -8.8184301767       -5.5327692449
 H          1.9463507169       -6.6488627623       -2.2223489570
 H          1.9716985187       -4.4541417936       -1.2766968406
 H          2.1320023818       -2.3957697581       -1.2482213270
 H          2.7254320760       -2.5632306965        1.1447119376
 H          4.7535040058       -3.1092093368        2.4232581320
 H          7.0291215864       -3.6073107404        2.0713107143
 H          9.0237021684       -4.2132122270        3.3692813028
 H         10.0849205584       -2.5559423598        4.8583033209
 H          9.1281587491       -0.2887182357        5.0465918564
 H          7.1205183329        0.3135028671        3.7672602139
 H          6.4430403114        0.7287975573        1.5542138589
 H          5.6265215889        2.9809050977        0.2191559352
 H          6.5419423619        4.2911330378       -1.5267333245
 H          7.5067404783        6.5189557078       -1.9000115577
 H          6.0721494741        8.5240668940       -1.7985839866
 H          3.6652928529        8.2853415360       -1.3083353513
 H          2.7014756129        6.0590324126       -0.9126058163
 H          2.2207489497        4.0912192179       -2.1276588064
 H          1.1862817389        1.8954060170       -1.7586890726
 H         -2.7589273184       -2.5195203978        1.1284345378
 H         -4.7936835269       -3.0417898934        2.4028842766
 H         -7.0702422917       -3.4934421008        2.0407449640
 H         -9.0838900188       -4.0846287453        3.3153079596
 H        -10.1299036088       -2.4307414065        4.8190317918
 H         -9.1372654570       -0.1825915974        5.0467277009
 H         -7.1098602906        0.4040824471        3.7919319497
 H         -6.4067617744        0.8424026210        1.5948204584
 H         -5.5492552242        3.0954139768        0.2909905303
 H         -6.4488282748        4.4373027975       -1.4389589681
 H         -7.3742219985        6.6840811495       -1.7977134165
 H         -5.9030965768        8.6622436496       -1.6919861498
 H         -3.4997984753        8.3774910081       -1.2096718161
 H         -2.5751227286        6.1321091225       -0.8290187532
 H         -2.1349016007        4.1668289309       -2.0615484494
 H         -1.1410185200        1.9484510195       -1.7234644078
 H         -2.1780688753       -2.3485203712       -1.2300404020
 H         -2.0504625415       -3.8233740131       -2.6541834455
 H         -2.0712463156       -6.0397136481       -3.5649778299
