  50
        -80.90549042
 C          3.9546399897       -3.5437274135       -0.2166109198
 C          2.6680933279       -3.4420423809        0.3016637178
 C          2.0642867948       -2.2133063980        0.5002506838
 C          2.7689590012       -1.0714352563        0.1523545286
 C          4.0945348008       -1.1688558457       -0.3256128262
 C          4.6834361322       -2.4100580540       -0.5189420378
 C          4.5792222364        0.1763126672       -0.4789466548
 C          5.7882127374        0.7007805110       -0.9142541073
 C          5.9398025757        2.0730765445       -0.9413616740
 C          4.9028720930        2.9125875765       -0.5454114933
 C          3.6901411491        2.4104984025       -0.1092224151
 C          3.5362708752        1.0344742419       -0.0739603587
 N          2.4246245936        0.2700200200        0.2775429697
 C          1.1881809872        0.7855472089        0.6080014244
 C         -0.0010481772        0.1535688022        0.2413074670
 C         -1.1871747819        0.7917002437        0.6067331360
 N         -2.4249853223        0.2782602850        0.2769575405
 C         -2.7757199575       -1.0630642111        0.1757626497
 C         -2.0769843022       -2.2006092007        0.5485337324
 C         -2.6861878802       -3.4301512561        0.3733113795
 C         -3.9718971791       -3.5356975273       -0.1463226769
 C         -4.6944481474       -2.4050296501       -0.4740578151
 C         -4.1003977611       -1.1628063763       -0.3041813149
 C         -4.5771490507        0.1818831962       -0.4849034394
 C         -5.7812869191        0.7055929647       -0.9347121812
 C         -5.9241126406        2.0780427188       -0.9884991632
 C         -4.8835846823        2.9188729437       -0.6045240679
 C         -3.6756651412        2.4178126773       -0.1540281323
 C         -3.5308000135        1.0417858439       -0.0922095642
 N         -1.1751287121        1.9637919871        1.2497530096
 C          0.0033539499        2.4769214666        1.5260281590
 N          1.1794088505        1.9565301034        1.2535694599
 H          4.3918004884       -4.5200541827       -0.3620739165
 H          2.1289283093       -4.3402359297        0.5635615260
 H          1.0840094968       -2.1617454561        0.9452648495
 H          5.6953008690       -2.4817300323       -0.8873218596
 H          6.5881131026        0.0458154836       -1.2245963824
 H          6.8727804427        2.5033826271       -1.2731864218
 H          5.0477948673        3.9821753822       -0.5773253648
 H          2.8941247850        3.0642920628        0.2059416892
 H         -0.0042448215       -0.7304930207       -0.3714039176
 H         -1.0978591461       -2.1429443331        0.9958023228
 H         -2.1527583882       -4.3255979426        0.6556676072
 H         -4.4135849250       -4.5126057717       -0.2730937992
 H         -5.7055236785       -2.4798084585       -0.8441487753
 H         -6.5840909747        0.0498249473       -1.2357592606
 H         -6.8530767985        2.5077413282       -1.3326104715
 H         -5.0221812386        3.9884978470       -0.6571176113
 H         -2.8764651780        3.0722973699        0.1517066158
 H          0.0054937836        3.4302120728        2.0392345199
  50
        -80.90536354
 C          3.9321863008       -3.5199764643        0.4879732731
 C          2.6270356000       -3.3295036757        0.9275914933
 C          2.0256436515       -2.0837694273        0.8919292325
 C          2.7514354854       -1.0165306160        0.3855555721
 C          4.0950253160       -1.1973176831       -0.0113982723
 C          4.6818080944       -2.4534902065        0.0315022289
 C          4.5995174668        0.0996506898       -0.3728562275
 C          5.8340549887        0.5351311603       -0.8336308721
 C          6.0040854262        1.8809689011       -1.0915403489
 C          4.9589578422        2.7791430504       -0.8994274641
 C          3.7210765752        2.3651556418       -0.4410591166
 C          3.5483927612        1.0174035953       -0.1720164597
 N          2.4137510861        0.3281677031        0.2595369161
 C          1.1711014105        0.8996948369        0.4343292643
 C         -0.0148104108        0.2048637954        0.1887886879
 C         -1.2033814100        0.9129281493        0.3679832474
 N         -2.4346828121        0.3298841359        0.1421110561
 C         -3.5200340079        0.9617757713       -0.4580535498
 C         -3.6442450731        2.2660608137       -0.9066912731
 C         -4.8315217148        2.6253754590       -1.5181661750
 C         -5.8702341647        1.7136226378       -1.6845952973
 C         -5.7470855216        0.4104685268       -1.2444527130
 C         -4.5636736126        0.0284039561       -0.6276608559
 C         -4.1061564736       -1.2130168196       -0.0635845097
 C         -4.7052049992       -2.4530556704        0.1055242204
 C         -4.0015886320       -3.4454382168        0.7599620632
 C         -2.7297499110       -3.1992781751        1.2666241157
 C         -2.1146690949       -1.9708374253        1.1056701188
 C         -2.7944208426       -0.9848413380        0.4081554813
 N         -1.2027107351        2.2024560765        0.7180588431
 C         -0.0270060965        2.7604666598        0.9072736333
 N          1.1501846481        2.1860336534        0.8013771782
 H          4.3663664323       -4.5077174101        0.5254194561
 H          2.0689964359       -4.1695836634        1.3135533422
 H          1.0281485927       -1.9629059369        1.2809185612
 H          5.7070894834       -2.5864770548       -0.2781472741
 H          6.6396630393       -0.1671245879       -0.9851652158
 H          6.9572006246        2.2434112386       -1.4468215869
 H          5.1168269660        3.8264270550       -1.1094399804
 H          2.9201962928        3.0679741095       -0.2847344003
 H         -0.0177874997       -0.7954942328       -0.2060619704
 H         -2.8453921404        2.9761911406       -0.7697946266
 H         -4.9551634611        3.6374487630       -1.8738071763
 H         -6.7828591914        2.0330117290       -2.1654576566
 H         -6.5493737278       -0.2995825203       -1.3763649881
 H         -5.7059759862       -2.6294680194       -0.2580393826
 H         -4.4486106608       -4.4179210050        0.9014104001
 H         -2.2131066023       -3.9793206127        1.8058141336
 H         -1.1479934588       -1.7860742762        1.5468247585
 H         -0.0294760592        3.8064852224        1.1865787783
  50
        -80.90527286
 C          3.7430963579       -3.2622215312        1.6727635142
 C          2.4275184840       -2.9116970148        1.9564644082
 C          1.8831015545       -1.7199339088        1.5114260318
 C          2.6833180900       -0.8788867353        0.7523213335
 C          4.0356433649       -1.2063228975        0.5078989121
 C          4.5619207168       -2.4070918919        0.9616076405
 C          4.6123627219       -0.0913242638       -0.1940197520
 C          5.8823311529        0.1554951146       -0.6967697765
 C          6.1166399457        1.3581252721       -1.3338628895
 C          5.1024663789        2.3011908004       -1.4733338062
 C          3.8299829203        2.0751484680       -0.9804186389
 C          3.5933417751        0.8729658296       -0.3347082084
 N          2.4129806711        0.3743182349        0.2124933206
 C          1.1851080573        0.9988858922        0.1415687170
 C          0.0003903308        0.2759537054        0.0052745123
 C         -1.1833327447        1.0120542649       -0.0411644311
 N         -2.4131206234        0.4027590522       -0.1785148016
 C         -2.6886498345       -0.7822343569       -0.8531922300
 C         -1.8961582728       -1.5314577676       -1.7102845384
 C         -2.4451346934       -2.6659452920       -2.2816537539
 C         -3.7576129115       -3.0478503615       -2.0258894175
 C         -4.5693111633       -2.2790968048       -1.2147876121
 C         -4.0386652487       -1.1361900054       -0.6345482438
 C         -4.6090656211       -0.1068956357        0.1923614060
 C         -5.8750416740        0.0817826307        0.7292249882
 C         -6.1043747692        1.2065513058        1.4969666442
 C         -5.0889518266        2.1290227838        1.7320482732
 C         -3.8202858080        1.9595960758        1.2075975459
 C         -3.5887809753        0.8364965652        0.4308655500
 N         -1.1742295734        2.3446210848        0.0705741581
 C          0.0031799327        2.9228117371        0.1629130101
 N          1.1793109200        2.3353280737        0.1877716564
 H          4.1299170789       -4.2037934766        2.0323044605
 H          1.8156280719       -3.5797189376        2.5441817588
 H          0.8730513188       -1.4564801642        1.7841393175
 H          5.5939284178       -2.6574742786        0.7689902795
 H          6.6650236146       -0.5802402184       -0.5905636087
 H          7.0981702968        1.5730491953       -1.7298267053
 H          5.3133154232        3.2326932019       -1.9770768812
 H          3.0498100473        2.8112668426       -1.0811763370
 H         -0.0001883245       -0.7964513015       -0.0595560066
 H         -0.8892961629       -1.2372709568       -1.9624125517
 H         -1.8394720405       -3.2624876147       -2.9475201796
 H         -4.1480690070       -3.9431011453       -2.4855414643
 H         -5.5992462205       -2.5508005063       -1.0409747184
 H         -6.6585846704       -0.6382792899        0.5482279382
 H         -7.0825478279        1.3753273417        1.9222759543
 H         -5.2959099062        2.9995174838        2.3366602786
 H         -3.0392655741        2.6807150681        1.3831456857
 H          0.0042168100        4.0035748100        0.2261652105
  50
        -80.90515300
 C          3.7934412372       -3.1797613021        1.8359619425
 C          2.4748675682       -2.8303707243        2.1078943011
 C          1.9137342718       -1.6712823549        1.6017500576
 C          2.7015268244       -0.8626831304        0.7962818071
 C          4.0547087778       -1.1892904888        0.5553538716
 C          4.5972324994       -2.3577922952        1.0703597976
 C          4.6126817136       -0.1071638125       -0.2105403573
 C          5.8721768878        0.1238649519       -0.7461780100
 C          6.0852366915        1.2939418430       -1.4481914317
 C          5.0611865423        2.2212818950       -1.6189722275
 C          3.7987559707        2.0106322930       -1.0946522125
 C          3.5836042007        0.8409736261       -0.3849630744
 N          2.4154814130        0.3605687407        0.2005664145
 C          1.1861406893        0.9844098612        0.1423812635
 C          0.0009533969        0.2589695404        0.0245111076
 C         -1.1829873564        0.9952257063       -0.0057982145
 N         -2.4130000169        0.3856922441       -0.1445063129
 C         -2.6993517109       -0.7525617058       -0.8899628770
 C         -1.9082872692       -1.4600117224       -1.7827363020
 C         -2.4704333951       -2.5442901306       -2.4331243559
 C         -3.7928811095       -2.9171079270       -2.2174113850
 C         -4.5995853982       -2.1914203405       -1.3628120313
 C         -4.0561161369       -1.0988513725       -0.7025425675
 C         -4.6158498206       -0.1171514962        0.1872821015
 C         -5.8791507568        0.0528957302        0.7366599276
 C         -6.0929859446        1.1276197064        1.5772412504
 C         -5.0659013289        2.0200548903        1.8713445317
 C         -3.7998325797        1.8690693421        1.3353794427
 C         -3.5839551575        0.7960249554        0.4868441921
 N         -1.1750889063        2.3266103889        0.1160663118
 C          0.0029541603        2.9067996017        0.1871300509
 N          1.1802576974        2.3206277726        0.1848778322
 H          4.1943505122       -4.0943719211        2.2463892875
 H          1.8748164462       -3.4725523484        2.7352810173
 H          0.9011178463       -1.4047352299        1.8617494949
 H          5.6302983240       -2.6080574525        0.8833765049
 H          6.6630329503       -0.5991989944       -0.6159032033
 H          7.0577245479        1.4951213812       -1.8722565642
 H          5.2563221232        3.1272812433       -2.1732247297
 H          3.0103824726        2.7343675143       -1.2202395744
 H          0.0002066501       -0.8140602356       -0.0406540763
 H         -0.8921680116       -1.1691685525       -1.9999060058
 H         -1.8679752314       -3.1068808134       -3.1305761788
 H         -4.1944369131       -3.7714136797       -2.7413927771
 H         -5.6356263016       -2.4567381943       -1.2169691974
 H         -6.6721987298       -0.6435025038        0.5104392576
 H         -7.0683910429        1.2802525454        2.0146822505
 H         -5.2615924290        2.8506962363        2.5329082936
 H         -3.0091798603        2.5667362897        1.5571438990
 H          0.0037244467        3.9872434768        0.2542034540
