  50
        -80.90549042
 C          3.9546399897       -3.5437274135       -0.2166109198
 C          2.6680933279       -3.4420423809        0.3016637178
 C          2.0642867948       -2.2133063980        0.5002506838
 C          2.7689590012       -1.0714352563        0.1523545286
 C          4.0945348008       -1.1688558457       -0.3256128262
 C          4.6834361322       -2.4100580540       -0.5189420378
 C          4.5792222364        0.1763126672       -0.4789466548
 C          5.7882127374        0.7007805110       -0.9142541073
 C          5.9398025757        2.0730765445       -0.9413616740
 C          4.9028720930        2.9125875765       -0.5454114933
 C          3.6901411491        2.4104984025       -0.1092224151
 C          3.5362708752        1.0344742419       -0.0739603587
 N          2.4246245936        0.2700200200        0.2775429697
 C          1.1881809872        0.7855472089        0.6080014244
 C         -0.0010481772        0.1535688022        0.2413074670
 C         -1.1871747819        0.7917002437        0.6067331360
 N         -2.4249853223        0.2782602850        0.2769575405
 C         -2.7757199575       -1.0630642111        0.1757626497
 C         -2.0769843022       -2.2006092007        0.5485337324
 C         -2.6861878802       -3.4301512561        0.3733113795
 C         -3.9718971791       -3.5356975273       -0.1463226769
 C         -4.6944481474       -2.4050296501       -0.4740578151
 C         -4.1003977611       -1.1628063763       -0.3041813149
 C         -4.5771490507        0.1818831962       -0.4849034394
 C         -5.7812869191        0.7055929647       -0.9347121812
 C         -5.9241126406        2.0780427188       -0.9884991632
 C         -4.8835846823        2.9188729437       -0.6045240679
 C         -3.6756651412        2.4178126773       -0.1540281323
 C         -3.5308000135        1.0417858439       -0.0922095642
 N         -1.1751287121        1.9637919871        1.2497530096
 C          0.0033539499        2.4769214666        1.5260281590
 N          1.1794088505        1.9565301034        1.2535694599
 H          4.3918004884       -4.5200541827       -0.3620739165
 H          2.1289283093       -4.3402359297        0.5635615260
 H          1.0840094968       -2.1617454561        0.9452648495
 H          5.6953008690       -2.4817300323       -0.8873218596
 H          6.5881131026        0.0458154836       -1.2245963824
 H          6.8727804427        2.5033826271       -1.2731864218
 H          5.0477948673        3.9821753822       -0.5773253648
 H          2.8941247850        3.0642920628        0.2059416892
 H         -0.0042448215       -0.7304930207       -0.3714039176
 H         -1.0978591461       -2.1429443331        0.9958023228
 H         -2.1527583882       -4.3255979426        0.6556676072
 H         -4.4135849250       -4.5126057717       -0.2730937992
 H         -5.7055236785       -2.4798084585       -0.8441487753
 H         -6.5840909747        0.0498249473       -1.2357592606
 H         -6.8530767985        2.5077413282       -1.3326104715
 H         -5.0221812386        3.9884978470       -0.6571176113
 H         -2.8764651780        3.0722973699        0.1517066158
 H          0.0054937836        3.4302120728        2.0392345199
