33
 energy: -63.078471025480 gnorm: 0.000081303456 xtb: 6.7.1 (edcfbbe)
N            5.65109894345222        2.62268303752404       -0.00269009653950
C            4.70203005183306        1.98063130931315       -0.00144647233959
C            3.51974200921740        1.20154698133806        0.00006431610758
C            2.28317108837985        1.81442567218227        0.00134291466320
C            1.10879531992112        1.04504574114754        0.00206717824325
N           -0.08751427184356        1.68624173226571        0.00233993593256
C           -1.14185341356483        0.92152880833088        0.00205866304994
C           -1.05176270202802       -0.53751744813941        0.00195082589583
N            0.09045071938628       -1.16646598223313        0.00206731746236
C            1.19229161289130       -0.38012912232355        0.00194966596724
C            2.46925946235173       -0.99372817558816        0.00115501272049
C            2.56025152682763       -2.40483850725299        0.00140632161031
N            2.63689945004944       -3.54825313600302        0.00176285543178
C            3.62125211596577       -0.21377716480321       -0.00010245042973
C            4.89593467450403       -0.82619213670140       -0.00177722137535
N            5.93096592583583       -1.31841886552605       -0.00349036174130
C           -2.39637319838909       -1.07074554645626        0.00080178626324
C           -2.95062922092459       -2.33050496717523       -0.00013230850808
C           -4.35250781435227       -2.43731862263133       -0.00214675778478
C           -5.18485893180774       -1.34038887842279       -0.00322076401639
C           -4.64894743853258       -0.03201128830613       -0.00215418570544
C           -5.34595067682280        1.19817980274367       -0.00312433387259
C           -4.65818725560540        2.39074667489664       -0.00201440230481
C           -3.25378187339487        2.46090766908315        0.00002467078006
C           -2.54481273971721        1.28176046459107        0.00095158275079
C           -3.25378830177349        0.05634540638557       -0.00005259347581
H            2.19667062205841        2.89031682120918        0.00147601170608
H           -2.33145065810167       -3.21419797280651        0.00054792522139
H           -4.78728032127289       -3.42585242859952       -0.00296145625252
H           -6.25630970845909       -1.47469164075665       -0.00491429854586
H           -6.42579974266493        1.19578481713863       -0.00483294165641
H           -5.21389817566496        3.31672336062416       -0.00283698333198
H           -2.75239910250621        3.41614897087643        0.00073714300045
