33
 energy: -63.029912228634 gnorm: 0.000054333705 xtb: 6.7.1 (edcfbbe)
N            5.67199556713191        2.62971986238062        0.00177776203859
C            4.72987185836543        1.97531760620943        0.00073349910031
C            3.55750823322054        1.18774256333486       -0.00043670267602
C            2.30670575941706        1.80887688631734       -0.00166131989238
C            1.13160066001741        1.06051422739040       -0.00219569718600
N           -0.07330957566206        1.61744629256750       -0.00238504202571
C           -1.17044001374117        0.91193555866190       -0.00212858355752
C           -1.08502467094982       -0.53361541773025       -0.00245314498629
N            0.09683407768319       -1.09776300951411       -0.00270719589057
C            1.21388671342416       -0.39706888079498       -0.00222419642419
C            2.48879927266068       -0.99964546917742       -0.00139092083013
C            2.57468442454125       -2.39967399042593       -0.00148306085141
N            2.63656035701579       -3.54768316667960       -0.00167030046378
C            3.66262806203332       -0.20922926464241       -0.00012953019714
C            4.92675405369721       -0.82729332699288        0.00190446372656
N            5.96060095893598       -1.32762138594668        0.00403325818211
C           -2.42401945864216       -1.06476213823533       -0.00118715624765
C           -2.97525872423906       -2.32718200726584       -0.00054166752251
C           -4.37820072642897       -2.43150634021323        0.00168340588387
C           -5.21462315919163       -1.33818837213364        0.00326015694576
C           -4.67901929077560       -0.02816781604783        0.00252210706018
C           -5.37039968818940        1.20613208932820        0.00415238853966
C           -4.67440945519777        2.39373767486120        0.00331132610432
C           -3.26911520248002        2.46084493849222        0.00093209812886
C           -2.56872592713165        1.27568378885715       -0.00054849597921
C           -3.28717993337971        0.05738831450526        0.00015986362985
H            2.23622859373662        2.88483537836082       -0.00186444334110
H           -2.36020139864818       -3.21373122390068       -0.00159082599713
H           -4.80885190184984       -3.42194712835716        0.00226726357377
H           -6.28532554039708       -1.47595957072365        0.00514751850623
H           -6.45003152511779        1.21129261811883        0.00616265750196
H           -5.22326913273917        3.32384657408334        0.00461057858359
H           -2.76823088709224        3.41635934130312        0.00043183507455
