33
 energy: -63.029911931336 gnorm: 0.000102993860 xtb: 6.7.1 (edcfbbe)
N            5.67279955031149        2.63544289797435       -0.00196571736238
C            4.73063279858060        1.98112142637435       -0.00108978291702
C            3.55893390173657        1.19254447653291       -0.00004662862891
C            2.30742370824198        1.81225093592531        0.00064375504678
C            1.13314331269993        1.06256642136609        0.00112879861746
N           -0.07242433852415        1.61804441419214        0.00132048594062
C           -1.16876213662407        0.91125869976212        0.00118678581254
C           -1.08156625276663       -0.53419672050121        0.00121487983479
N            0.10094168221043       -1.09695318287184        0.00139678773941
C            1.21716155730389       -0.39494559710131        0.00120193451970
C            2.49274344263159       -0.99607137407153        0.00086113971915
C            2.58051263728077       -2.39597905817719        0.00115683210992
N            2.64482478676316       -3.54384232350307        0.00151833314650
C            3.66568371802487       -0.20430759526917        0.00005132571701
C            4.93042426453545       -0.82110166741370       -0.00085361032085
N            5.96452320272399       -1.32084992193707       -0.00173903957172
C           -2.41986869393903       -1.06703711241712        0.00034942861402
C           -2.96944568523523       -2.33018255988083       -0.00027829079043
C           -4.37224160193160       -2.43634429896126       -0.00169312223678
C           -5.21007068769597       -1.34409521666989       -0.00244832725010
C           -4.67616996619955       -0.03337936506630       -0.00173417174531
C           -5.36918027702084        1.20000774888316       -0.00245542530366
C           -4.67471551494001        2.38850853237523       -0.00171231961613
C           -3.26950876210660        2.45745866529829       -0.00031612628873
C           -2.56752072313676        1.27323156301054        0.00032551533333
C           -3.28443960066506        0.05401304979446       -0.00029398388883
H            2.23580085321373        2.88813463840188        0.00061754522533
H           -2.35319386161883       -3.21590280547277        0.00021171785005
H           -4.80158902583381       -3.42734910906414       -0.00226734036629
H           -6.28059483105943       -1.48324512514716       -0.00364394477632
H           -6.44881744483568        1.20376108717616       -0.00363759089946
H           -5.22478417964057        3.31790077875368       -0.00227105788290
H           -2.76993343758497        3.41365803712761        0.00015287618608
