  68
       -110.42789213
 N          4.2621080957        3.6633392053       -1.2074680737
 C          3.2812291958        3.0786016221       -1.0805657546
 C          2.1001720385        2.3323224470       -0.9147416685
 C          1.9091897379        1.1879642989       -1.6705001805
 C          0.8000750368        0.3846186522       -1.4471123166
 C         -0.1299772518        0.7106419305       -0.4757229589
 N         -1.1107660921       -0.2369208409       -0.1545161628
 C         -0.8179277551       -1.5747503126        0.1560270556
 C          0.4710802813       -2.1440374512        0.2376895753
 C          0.6093489336       -3.4967658357       -0.1697143068
 C          1.8181036545       -3.9968172981       -0.5361438108
 C          2.9980401017       -3.1871329611       -0.4926034103
 C          4.2293568491       -3.6252643721       -0.9868290596
 C          5.3548101361       -2.8312970122       -0.9026407131
 C          5.3133190130       -1.5801118088       -0.2592720904
 C          6.4515505630       -0.7552783966       -0.1308964960
 C          6.3756813657        0.4575250949        0.5291738906
 C          5.1927150204        0.8791974372        1.1020709146
 C          4.0254694763        0.0898917842        1.0020521397
 C          2.8140860979        0.4479866235        1.6189119860
 C          1.6724949083       -0.3025166878        1.4293604706
 C          1.6724373101       -1.4185814525        0.5867679712
 C          2.9143970700       -1.9099082252        0.1185251545
 C          4.0829770808       -1.1332297792        0.2873769494
 N         -1.9380147805       -2.2853317312        0.2990877905
 C         -2.9528523672       -1.4332552719        0.1283405267
 C         -4.3469194089       -1.6957065063        0.2602869427
 C         -4.8056131512       -2.9591989169        0.6438585671
 C         -6.1505976662       -3.1878282150        0.8112192192
 C         -7.0498581211       -2.1463375230        0.6028349622
 C         -6.6082268483       -0.8995001702        0.2163902135
 C         -5.2467929393       -0.6319656540        0.0210275575
 C         -4.7533412026        0.6583494493       -0.4359359306
 C         -5.6235762890        1.6953440617       -0.7871229913
 C         -5.1666228905        2.9012826035       -1.2719168617
 C         -3.8030736265        3.1101232195       -1.4548335597
 C         -2.9129324047        2.1234104892       -1.1131903587
 C         -3.3552451639        0.9016358320       -0.5754350993
 C         -2.4762209764       -0.1421173086       -0.1965754509
 C          0.0034213253        1.9080529063        0.2841784819
 C         -0.9008923365        2.2727609638        1.3019380226
 C         -0.7195562165        3.4236606183        2.0229929859
 C          0.3710216578        4.2590060853        1.7611973123
 C          1.2837759639        3.9174240115        0.7973467306
 C          1.1302248395        2.7374375346        0.0472527345
 H          2.6401545141        0.9062980265       -2.4133150896
 H          0.6680557298       -0.5194294655       -2.0232959687
 H         -0.2945282054       -4.0766104231       -0.2753874447
 H          1.9039246002       -5.0055706317       -0.9118501245
 H          4.2912678009       -4.6015334103       -1.4463002784
 H          6.2919101639       -3.1736959166       -1.3169615383
 H          7.3868439307       -1.0875085759       -0.5566017442
 H          7.2559525209        1.0783701566        0.6067530134
 H          5.1433435644        1.8194439216        1.6299289801
 H          2.7830375598        1.3278067444        2.2452196029
 H          0.7596048126       -0.0224925844        1.9344949001
 H         -4.0723035325       -3.7329222793        0.8093725005
 H         -6.5092731492       -4.1616566151        1.1087378439
 H         -8.1074346442       -2.3150682259        0.7446629796
 H         -7.3427930810       -0.1237483582        0.0700733528
 H         -6.6884997434        1.5580920907       -0.6916875439
 H         -5.8706697030        3.6785347295       -1.5288867460
 H         -3.4458957887        4.0416188002       -1.8674708393
 H         -1.8600734868        2.2760882659       -1.2855159019
 H         -1.7428831564        1.6328937562        1.5196287549
 H         -1.4218052572        3.6882122538        2.7993092860
 H          0.4962662277        5.1686166257        2.3290541576
 H          2.1386650466        4.5476086821        0.5989620874
  68
       -110.42751010
 N          4.0943976376        3.7893763010       -1.6216123168
 C          3.1435630617        3.1783334259       -1.4070179408
 C          2.0322976139        2.3684501085       -1.1057851052
 C          1.8266640033        1.2033873412       -1.8240997151
 C          0.7537695419        0.3763495500       -1.5189519468
 C         -0.1250589257        0.6996723794       -0.5021455853
 N         -1.1052570300       -0.2396018786       -0.1489604566
 C         -0.8167294787       -1.5866477028        0.1214555179
 C          0.4713420393       -2.1563261803        0.2073681112
 C          0.6192414630       -3.5038112334       -0.2124563768
 C          1.8381362560       -4.0049730326       -0.5418456124
 C          3.0194822684       -3.2013295548       -0.4481765590
 C          4.2675436653       -3.6457657399       -0.8908933097
 C          5.3933476919       -2.8576578757       -0.7595633327
 C          5.3313298133       -1.6054428941       -0.1208697097
 C          6.4675861144       -0.7856830523        0.0527093847
 C          6.3704574533        0.4292986017        0.7066786060
 C          5.1677243481        0.8571236767        1.2306948187
 C          4.0014831800        0.0712309532        1.0873614253
 C          2.7719881121        0.4309003724        1.6631610495
 C          1.6362892805       -0.3188871363        1.4356189456
 C          1.6624272168       -1.4329407398        0.5917461290
 C          2.9178945448       -1.9246558000        0.1623714400
 C          4.0820267470       -1.1524975369        0.3755720649
 N         -1.9377397491       -2.2994871429        0.2399408444
 C         -2.9504837488       -1.4401020002        0.0944565496
 C         -4.3446399635       -1.7118644762        0.2017547000
 C         -4.8027365080       -2.9998701018        0.4938742445
 C         -6.1491976083       -3.2456584032        0.6184060444
 C         -7.0504618158       -2.1972084634        0.4588880840
 C         -6.6089057940       -0.9250169101        0.1669908335
 C         -5.2452044391       -0.6377260618        0.0198222153
 C         -4.7499801626        0.6816098134       -0.3414222154
 C         -5.6189711487        1.7510330577       -0.5815317118
 C         -5.1650049427        2.9869810078       -0.9865983548
 C         -3.8065818976        3.1942823765       -1.2056909762
 C         -2.9170537066        2.1774996639       -0.9661148002
 C         -3.3527873798        0.9257142032       -0.4954163291
 C         -2.4718956090       -0.1391816182       -0.1856599496
 C          0.0458982929        1.8960279326        0.2509788252
 C         -0.7899803696        2.2417406080        1.3324503550
 C         -0.5744034725        3.3910909552        2.0457774738
 C          0.4800702502        4.2466112163        1.7086488582
 C          1.3222811673        3.9284128279        0.6756405780
 C          1.1354799705        2.7474729955       -0.0664100572
 H          2.5086846148        0.9326242660       -2.6158987414
 H          0.6054637469       -0.5365087321       -2.0770394488
 H         -0.2821662232       -4.0805119837       -0.3514694852
 H          1.9335769280       -5.0110445820       -0.9224068639
 H          4.3438169635       -4.6227311206       -1.3466893922
 H          6.3452719692       -3.2061430509       -1.1329179151
 H          7.4180176872       -1.1230100740       -0.3334098025
 H          7.2502515139        1.0458755115        0.8184825857
 H          5.1007508466        1.7976036373        1.7565965934
 H          2.7196542137        1.3117355639        2.2866887590
 H          0.7101162932       -0.0431743143        1.9177170771
 H         -4.0680730631       -3.7798781314        0.6190143136
 H         -6.5079895723       -4.2392742177        0.8409342767
 H         -8.1099545702       -2.3811894413        0.5616334447
 H         -7.3463544693       -0.1471597077        0.0497608612
 H         -6.6811975797        1.6182079938       -0.4552151678
 H         -5.8678012930        3.7891772667       -1.1549499157
 H         -3.4523921059        4.1490756717       -1.5640491736
 H         -1.8700495636        2.3337852998       -1.1658591141
 H         -1.6046758241        1.5866928678        1.6037300145
 H         -1.2207500260        3.6400763990        2.8740597790
 H          0.6327218073        5.1543925424        2.2727473376
 H          2.1478929840        4.5754519488        0.4167607275
  68
       -110.42705509
 N          2.3270918978        6.2470765416       -2.0863254340
 C          1.7801410631        5.3024504933       -1.7278668851
 C          1.1180260960        4.1334877727       -1.3088252613
 C          1.3262179108        2.9493190556       -1.9981915020
 C          0.6763134594        1.7860642156       -1.6068897738
 C         -0.1907810317        1.7927623801       -0.5302980838
 N         -0.8251644683        0.5974864671       -0.1578419747
 C         -0.1682170954       -0.5932727561        0.1848066773
 C          1.2255761408       -0.7085560997        0.4026502054
 C          1.9816409351        0.4115553872        0.8268246346
 C          3.3190521306        0.3413599001        1.0529670823
 C          4.0407779212       -0.8715158665        0.8479345776
 C          5.4219303860       -0.9450772812        1.0417592022
 C          6.1024699275       -2.1321428285        0.8691375312
 C          5.4205416910       -3.3009763039        0.4887521058
 C          6.0937652429       -4.5292174871        0.3041018082
 C          5.4034758368       -5.6675817085       -0.0709924620
 C          4.0409587179       -5.6264466830       -0.2773397953
 C          3.3207374859       -4.4191573343       -0.1057599214
 C          1.9364301796       -4.3382369906       -0.3099904385
 C          1.2561293687       -3.1482300532       -0.1418996594
 C          1.9123569629       -1.9786954039        0.2552414465
 C          3.3156566547       -2.0297498774        0.4637773784
 C          4.0167276587       -3.2468400263        0.2836421094
 N         -1.0500512107       -1.5779226753        0.3598992296
 C         -2.2623555756       -1.0512431205        0.1669870083
 C         -3.5232621211       -1.6953797648        0.3185508426
 C         -3.6040295867       -3.0278383846        0.7335598440
 C         -4.8290553814       -3.6228373008        0.9189010374
 C         -5.9865207720       -2.8821350365        0.6982176042
 C         -5.9167883161       -1.5701825156        0.2822098020
 C         -4.6869834340       -0.9340765644        0.0668129877
 C         -4.5771042774        0.4335374491       -0.4175039746
 C         -5.7080796732        1.1725587811       -0.7787801015
 C         -5.6170276369        2.4498580272       -1.2860285273
 C         -4.3704965471        3.0368172881       -1.4782786207
 C         -3.2349542500        2.3504691051       -1.1287905474
 C         -3.3052265060        1.0606856600       -0.5739616509
 C         -2.1643315013        0.3105234667       -0.1935663319
 C         -0.4142450872        2.9838154701        0.2201645795
 C         -1.2419360898        3.0172886738        1.3594621938
 C         -1.4251671488        4.1826955650        2.0562985898
 C         -0.7933861300        5.3606810996        1.6441190244
 C          0.0307294731        5.3561320867        0.5490381552
 C          0.2467442367        4.1733852570       -0.1819735281
 H          1.9901825902        2.9355000563       -2.8492281119
 H          0.8395528778        0.8666906239       -2.1494294696
 H          1.4698605144        1.3361975094        1.0425333268
 H          3.8568348423        1.2065054415        1.4117414312
 H          5.9561547500       -0.0519360323        1.3328257809
 H          7.1702121557       -2.1754888649        1.0262108509
 H          7.1615155912       -4.5652089101        0.4614100046
 H          5.9387298900       -6.5965434248       -0.2048795119
 H          3.5026096582       -6.5142889068       -0.5739837233
 H          1.3976666742       -5.2262094908       -0.6074829198
 H          0.1920058720       -3.1143848135       -0.3067640911
 H         -2.6819875847       -3.5597708550        0.9099398835
 H         -4.8969480714       -4.6514661584        1.2396956223
 H         -6.9528198136       -3.3391938593        0.8542798328
 H         -6.8414330927       -1.0368227473        0.1296364355
 H         -6.6889277718        0.7375947475       -0.6747637784
 H         -6.5145079625        2.9876693406       -1.5532785453
 H         -4.2941254973        4.0252148285       -1.9055689344
 H         -2.2730054613        2.7995522225       -1.3101616383
 H         -1.7291497616        2.1107853555        1.6872583904
 H         -2.0597435522        4.1936134556        2.9296071826
 H         -0.9525245070        6.2735285120        2.1979956196
 H          0.5301848706        6.2593361429        0.2300922748
  68
       -110.42615984
 N          1.6854329200        5.7019135824       -3.8282041505
 C          1.2141822635        4.8221065102       -3.2586894364
 C          0.6245711841        3.7404571706       -2.5777082724
 C         -0.3423010229        2.9816238104       -3.2184175398
 C         -0.9197224353        1.8954079719       -2.5740255010
 C         -0.5466420966        1.5602290665       -1.2835749041
 N         -1.1114250186        0.4242837836       -0.6833866762
 C         -0.4152045995       -0.7080918722       -0.2285101592
 C          0.9831572099       -0.8962783645       -0.3480000552
 C          1.7103670213       -0.2575166632       -1.3814158250
 C          3.0633638267       -0.3270407205       -1.4706863439
 C          3.8299216971       -1.0399565351       -0.5016202588
 C          5.2251657911       -1.0660810230       -0.5448424849
 C          5.9524045879       -1.7922511049        0.3757258814
 C          5.3031401229       -2.5319146042        1.3786258077
 C          6.0239079121       -3.2915682325        2.3277114923
 C          5.3656092921       -4.0170417781        3.3039660210
 C          3.9886718279       -4.0098406352        3.3753147981
 C          3.2213522733       -3.2603465590        2.4500165821
 C          1.8212572715       -3.2245224865        2.4951660005
 C          1.0944843401       -2.4750298022        1.5904484785
 C          1.7190684728       -1.7358780311        0.5812851478
 C          3.1366514849       -1.7636937470        0.5034988117
 C          3.8845442064       -2.5174394685        1.4406500483
 N         -1.2630471680       -1.5897197929        0.3005159555
 C         -2.4896859722       -1.0752827794        0.1776834041
 C         -3.7252771319       -1.6834657821        0.5391986808
 C         -3.7633692736       -2.9800207054        1.0604376287
 C         -4.9668751969       -3.5688179075        1.3668086338
 C         -6.1460892522       -2.8636823288        1.1452690201
 C         -6.1181322288       -1.5829253956        0.6375236363
 C         -4.9104498928       -0.9441197820        0.3260793024
 C         -4.8413944818        0.4231254630       -0.1664043007
 C         -5.9888505955        1.2156048019       -0.2775073070
 C         -5.9358115995        2.5287684093       -0.6890647139
 C         -4.7103009826        3.1162910849       -0.9867734939
 C         -3.5607138276        2.3717830874       -0.9016378744
 C         -3.5939267413        1.0185748305       -0.5205856854
 C         -2.4362941321        0.2066481667       -0.4112669384
 C          0.4121564253        2.3400560585       -0.5760901625
 C          0.7701486238        2.0787638551        0.7607403614
 C          1.7122876434        2.8427385553        1.3954230350
 C          2.3348663332        3.9017674419        0.7251520396
 C          1.9885312736        4.1989130678       -0.5661541377
 C          1.0181378070        3.4366024446       -1.2427004269
 H         -0.6342867927        3.2268043179       -4.2285428284
 H         -1.6564425475        1.2926446080       -3.0853132918
 H          1.1669426190        0.2579628103       -2.1575339749
 H          3.5818597281        0.1501392560       -2.2890323520
 H          5.7339407928       -0.5053454220       -1.3158895634
 H          7.0316891862       -1.8027735048        0.3312086395
 H          7.1026359347       -3.2977373266        2.2768134113
 H          5.9371081836       -4.5928727311        4.0177343079
 H          3.4744951168       -4.5743748203        4.1388996352
 H          1.3062618479       -3.7917701664        3.2570234087
 H          0.0186709405       -2.4610646335        1.6498849591
 H         -2.8269801297       -3.4970504396        1.2014477459
 H         -5.0017556719       -4.5702989795        1.7684653611
 H         -7.0963930941       -3.3240624341        1.3733184621
 H         -7.0587115394       -1.0800359611        0.4791933515
 H         -6.9518860035        0.8030976340       -0.0240727323
 H         -6.8446182263        3.1069615764       -0.7630716859
 H         -4.6611057789        4.1545724049       -1.2783996812
 H         -2.6135368600        2.8419594903       -1.1083499863
 H          0.2920374927        1.2677833034        1.2898775565
 H          1.9779210213        2.6284532298        2.4196629034
 H          3.0839114776        4.4891371471        1.2343579720
 H          2.4532765878        5.0236553533       -1.0867452108
  68
       -110.42595597
 N          1.9029072603        5.4601711102       -3.9184025019
 C          1.3775452651        4.6266267905       -3.3272638072
 C          0.7213415392        3.6013438938       -2.6210340085
 C         -0.3306738804        2.9285634251       -3.2224823460
 C         -0.9625005791        1.8836695553       -2.5612807226
 C         -0.5667923735        1.5125429244       -1.2876499645
 N         -1.1604775855        0.3938409123       -0.6848899095
 C         -0.4767984612       -0.7493495811       -0.2428759689
 C          0.9201008484       -0.9430373417       -0.3865454208
 C          1.6172368164       -0.3621993230       -1.4720934937
 C          2.9705839614       -0.4112469460       -1.5757877114
 C          3.7629887102       -1.0328593315       -0.5650260978
 C          5.1579230588       -1.0258909521       -0.6182393103
 C          5.9105323302       -1.6592483560        0.3499792525
 C          5.2888477656       -2.3348492492        1.4134231544
 C          6.0359529899       -2.9945875145        2.4158020737
 C          5.4031303563       -3.6549442764        3.4531984422
 C          4.0269091850       -3.6821713619        3.5331951268
 C          3.2330903334       -3.0349068630        2.5540681922
 C          1.8325352599       -3.0398918965        2.6041829050
 C          1.0798525745       -2.3847038815        1.6485187855
 C          1.6810365941       -1.7041294934        0.5855434969
 C          3.0977713933       -1.6984014688        0.4977068484
 C          3.8708747432       -2.3562359209        1.4846724881
 N         -1.3253849349       -1.6212803880        0.2964166405
 C         -2.5483392618       -1.0908804686        0.1855513834
 C         -3.7903152830       -1.6883800757        0.5428495476
 C         -3.8437062927       -2.9920972690        1.0449264755
 C         -5.0544018054       -3.5733128557        1.3372137854
 C         -6.2258068976       -2.8535512867        1.1209645423
 C         -6.1829432274       -1.5651846241        0.6336328828
 C         -4.9676443323       -0.9338244646        0.3375108615
 C         -4.8837027248        0.4404468002       -0.1327209937
 C         -6.0197379666        1.2521127134       -0.2208424485
 C         -5.9487312281        2.5715156214       -0.6094456498
 C         -4.7166115748        3.1454015511       -0.9070820368
 C         -3.5781019676        2.3815625672       -0.8454958185
 C         -3.6307992395        1.0230386513       -0.4870515981
 C         -2.4844276000        0.1930245879       -0.3980962154
 C          0.4663003626        2.2219337385       -0.6102509889
 C          0.8422030578        1.9401304980        0.7178584349
 C          1.8722753195        2.6167981878        1.3132327809
 C          2.5660374328        3.6101896610        0.6128328760
 C          2.1973560010        3.9368674570       -0.6649465997
 C          1.1377958699        3.2635188936       -1.3012409788
 H         -0.6412874968        3.2011845172       -4.2200164615
 H         -1.7566262854        1.3372436986       -3.0494111444
 H          1.0498656962        0.0886280652       -2.2718238392
 H          3.4694835192        0.0161523496       -2.4328308560
 H          5.6466268846       -0.5131046734       -1.4342763091
 H          6.9893270885       -1.6440070170        0.2970247213
 H          7.1140996341       -2.9752660826        2.3574226418
 H          5.9944127111       -4.1526276986        4.2083620134
 H          3.5333574358       -4.1955934138        4.3448890257
 H          1.3384250851       -3.5621823277        3.4106071587
 H          0.0037911068       -2.3991102503        1.7100670614
 H         -2.9131159292       -3.5210165710        1.1803200800
 H         -5.1010642823       -4.5809194088        1.7221481249
 H         -7.1816352713       -3.3087314879        1.3359525482
 H         -7.1175856917       -1.0505353592        0.4777555624
 H         -6.9868402835        0.8504734172        0.0345816104
 H         -6.8487117414        3.1654200998       -0.6650065301
 H         -4.6539752375        4.1881202709       -1.1798415149
 H         -2.6240803277        2.8390808427       -1.0510440727
 H          0.3086087439        1.1824294731        1.2722406313
 H          2.1525021576        2.3842372913        2.3296256490
 H          3.3856610762        4.1260775849        1.0897131834
 H          2.7134609146        4.7163972397       -1.2063461030
