  56
        -91.64520089
 O         -0.8056111725       -4.1550592080       -2.4141064752
 C         -1.2658766707       -3.0375667671       -2.5048947988
 O         -2.4972676666       -2.8238572434       -3.0064089404
 C         -0.5767871031       -1.8084922056       -2.0938871404
 C          0.6915890111       -1.9067219756       -1.5088454129
 C          1.3576967621       -0.7846689959       -1.0897773439
 C          0.7770312998        0.4933857845       -1.2244719526
 C          1.4208634877        1.6579190054       -0.6989995286
 C          0.6561911916        2.7967781770       -0.2685639306
 C         -0.5902072004        2.8098578601        0.2801627194
 C         -1.3753221713        1.6869358367        0.7150842168
 C         -2.8102656870        1.7985721945        0.6491860562
 C         -3.6404221299        1.1441379409        1.5751818846
 C         -5.0111627335        1.2739145112        1.5115706536
 C         -5.5988731277        2.0547865138        0.5265496104
 C         -4.7957519787        2.7190951710       -0.3894231519
 C         -3.4240603107        2.6008642514       -0.3276065257
 C         -0.7499392288        0.5121461624        1.2407753700
 C          0.5185141975        0.5759738576        1.8541281409
 C          1.1594037462       -0.5625779648        2.2706840682
 C          0.5647229733       -1.8161526379        2.0978804165
 C          1.2990396127       -3.0159709669        2.5200664236
 O          2.4281480829       -3.0154889034        2.9621177790
 O          0.6002130370       -4.1547125580        2.3727960635
 C         -0.7069833336       -1.8941399135        1.5192553179
 C         -1.3513550884       -0.7559473927        1.1064125789
 C          2.8575963144        1.7466194147       -0.6344571796
 C          3.6757488149        1.0796229256       -1.5619614467
 C          5.0481278735        1.1942581393       -1.5049827005
 C          5.6490249415        1.9703152756       -0.5242002892
 C          4.8579018820        2.6437876995        0.3954981726
 C          3.4847165752        2.5417528358        0.3395271241
 C         -0.4876255119        0.5785528890       -1.8429733849
 C         -1.1498021841       -0.5454256630       -2.2683131059
 H         -2.8984313963       -3.6694422988       -3.2636509671
 H          1.1190826728       -2.8886614069       -1.3777442263
 H          2.3085603826       -0.8802596861       -0.5894142471
 H          1.1408647786        3.7569323172       -0.4047474132
 H         -1.0564743271        3.7796142634        0.4124066615
 H         -3.1902705197        0.5654365263        2.3678788628
 H         -5.6298420471        0.7691341905        2.2390048599
 H         -6.6728317465        2.1504195743        0.4774904857
 H         -5.2469741260        3.3297954888       -1.1576833699
 H         -2.8100583092        3.1061191835       -1.0588204659
 H          0.9712826602        1.5392160897        2.0262967264
 H          2.1316086002       -0.5157538962        2.7373495232
 H          1.1359706861       -4.9123791254        2.6572553647
 H         -1.1616290356       -2.8617094426        1.3791617839
 H         -2.3058979102       -0.8328310074        0.6091185513
 H          3.2156058890        0.5040274165       -2.3509969594
 H          5.6577731302        0.6810579798       -2.2341390016
 H          6.7241609296        2.0541617090       -0.4804507450
 H          5.3196761697        3.2489592618        1.1618530577
 H          2.8799134204        3.0542928409        1.0732725195
 H         -0.9223785944        1.5505722604       -2.0140673080
 H         -2.1164248073       -0.4648950058       -2.7405426869
  56
        -91.64507326
 O         -0.9632889727       -4.0887534189       -2.4995104069
 C         -1.3876513385       -2.9569187062       -2.5880618890
 O         -2.6019302558       -2.7005671998       -3.1107448297
 C         -0.6690914031       -1.7529762016       -2.1531667574
 C          0.5883183416       -1.8925755082       -1.5531684725
 C          1.2806753772       -0.7941071113       -1.1135128364
 C          0.7389500890        0.5011292651       -1.2435748267
 C          1.4055179632        1.6455965612       -0.7012358418
 C          0.6527126196        2.7954126522       -0.2750088165
 C         -0.5940535377        2.8094455413        0.2717210649
 C         -1.3653842079        1.6778398834        0.7115743273
 C         -2.8006640309        1.7551201016        0.6287765323
 C         -3.6265381155        1.0793922667        1.5435994589
 C         -4.9991730005        1.1706618292        1.4589198400
 C         -5.5934700430        1.9337216566        0.4638676071
 C         -4.7952365119        2.6208412083       -0.4395510240
 C         -3.4219793367        2.5410234484       -0.3568765908
 C         -0.7150142580        0.5248373229        1.2562503345
 C          0.5454131527        0.6328795349        1.8799244109
 C          1.2169197697       -0.4806827225        2.3148396978
 C          0.6617113571       -1.7533705580        2.1507873908
 C          1.4291242937       -2.9243880830        2.5945684523
 O          2.5501241137       -2.8816023769        3.0548752217
 O          0.7731699492       -4.0879079736        2.4440297776
 C         -0.6018783261       -1.8756390840        1.5621852912
 C         -1.2769389344       -0.7618969565        1.1310335012
 C          2.8413912414        1.6988627114       -0.6118514517
 C          3.6603274638        1.0004324655       -1.5157425599
 C          5.0338067238        1.0690688168       -1.4244215390
 C          5.6357261899        1.8315319986       -0.4336264823
 C          4.8446018569        2.5410979796        0.4586781696
 C          3.4707223593        2.4839962434        0.3692298036
 C         -0.5156390368        0.6272936030       -1.8754983252
 C         -1.2047047747       -0.4727182482       -2.3200264781
 H         -3.0241948284       -3.5306911238       -3.3839756229
 H          0.9862022034       -2.8875765822       -1.4269345400
 H          2.2209449857       -0.9220457016       -0.6006865486
 H          1.1425704113        3.7522850182       -0.4147133000
 H         -1.0673103539        3.7762245053        0.4000915222
 H         -3.1728774600        0.5145017462        2.3441580495
 H         -5.6146159906        0.6489533330        2.1771967838
 H         -6.6687780959        1.9983763194        0.3975993830
 H         -5.2516669505        3.2190100367       -1.2146555484
 H         -2.8114719855        3.0644459394       -1.0780174100
 H          0.9663023753        1.6112465545        2.0473220450
 H          2.1829146150       -0.3989276069        2.7896282574
 H          1.3295182855       -4.8236652072        2.7459085209
 H         -1.0261674292       -2.8578575248        1.4287224742
 H         -2.2237175950       -0.8734330048        0.6257523845
 H          3.2016829333        0.4350591778       -2.3129544845
 H          5.6439352984        0.5293734831       -2.1337737292
 H          6.7116352538        1.8777705393       -0.3616392714
 H          5.3071025481        3.1384282398        1.2307189976
 H          2.8656943940        3.0242104761        1.0824293560
 H         -0.9200895913        1.6128155863       -2.0431760085
 H         -2.1626868451       -0.3594498578       -2.8030914183
  56
        -91.64505393
 O         -0.5844464639       -4.2517120505       -2.3482618171
 C         -1.0904864794       -3.1548083832       -2.4478491696
 O         -2.3309186974       -2.9968051193       -2.9478156102
 C         -0.4506219618       -1.8952262369       -2.0507788289
 C          0.8198460099       -1.9398076652       -1.4639424210
 C          1.4438367150       -0.7888538362       -1.0601122257
 C          0.8175495017        0.4660401514       -1.2119814481
 C          1.4284763557        1.6576714204       -0.7103232216
 C          0.6453178304        2.7906012771       -0.2984544827
 C         -0.6000812086        2.8113105469        0.2534448390
 C         -1.3981761133        1.7072478816        0.7067704594
 C         -2.8315278129        1.8619979407        0.6845270295
 C         -3.6481926881        1.2404798313        1.6444621219
 C         -5.0141832682        1.4245941420        1.6369905257
 C         -5.6104014095        2.2267212624        0.6743819236
 C         -4.8206021315        2.8527548281       -0.2793576328
 C         -3.4531339294        2.6804194073       -0.2734919713
 C         -0.7982442557        0.5116442864        1.2148187102
 C          0.4779043312        0.5309314282        1.8143691601
 C          1.0866879427       -0.6316278598        2.2132854479
 C          0.4521891260       -1.8643781894        2.0328041150
 C          1.1537625412       -3.0924963132        2.4286201337
 O          2.2883982546       -3.1341128924        2.8541322579
 O          0.4169203984       -4.2060289254        2.2745453742
 C         -0.8280759432       -1.8972664924        1.4688000045
 C         -1.4415965718       -0.7352907322        1.0767973306
 C          2.8637689448        1.7865808256       -0.6578326889
 C          3.4758322343        2.6113041821        0.3008871183
 C          4.8456720412        2.7581174421        0.3399013664
 C          5.6477330923        2.1003029615       -0.5816612226
 C          5.0612736057        1.2935926413       -1.5463020213
 C          3.6926219729        1.1346773507       -1.5864020110
 C         -0.4512211522        0.4970802294       -1.8270687221
 C         -1.0705866557       -0.6562328981       -2.2385675829
 H         -2.6970050525       -3.8610020085       -3.1953907691
 H          1.2836012993       -2.9034015298       -1.3206416301
 H          2.3979028481       -0.8431631237       -0.5596662027
 H          1.1213807306        3.7529036004       -0.4505009744
 H         -1.0590227559        3.7864830199        0.3718090653
 H         -3.1887552612        0.6450574672        2.4193727381
 H         -5.6217615554        0.9469426552        2.3915484770
 H         -6.6805311826        2.3674547667        0.6710510115
 H         -5.2788134780        3.4772619594       -1.0322779608
 H         -2.8506567474        3.1557930104       -1.0338593089
 H          0.9625873020        1.4781665730        1.9890834426
 H          2.0642833896       -0.6202810626        2.6707672540
 H          0.9330172989       -4.9852502904        2.5361578006
 H         -1.3139413966       -2.8488368199        1.3243245550
 H         -2.4053462401       -0.7759287639        0.5928761442
 H          2.8629994927        3.1115814716        1.0366018401
 H          5.2961503937        3.3864005874        1.0942816506
 H          6.7199894348        2.2196432809       -0.5516360822
 H          5.6789056254        0.7912628722       -2.2762340789
 H          3.2425319336        0.5349823681       -2.3632517895
 H         -0.9239449046        1.4501581775       -2.0050833624
 H         -2.0395127972       -0.6180587054       -2.7114137826
