  56
  -91.3176068150000       0.389779929557106      !
 O         -0.3821178434       -4.3092650648       -2.2841162725
 C         -0.9002985416       -3.2239555821       -2.4350595874
 O         -2.1137090048       -3.0987167115       -3.0056328374
 C         -0.3046602725       -1.9450959535       -2.0308668830
 C          0.9320263013       -1.9546157443       -1.3743845662
 C          1.5132745447       -0.7844895762       -0.9619610298
 C          0.8752724458        0.4555012960       -1.1751154649
 C          1.4373897999        1.6680798059       -0.6666323128
 C          0.6136967228        2.7949985188       -0.3229942424
 C         -0.6604560520        2.8046856822        0.1591689734
 C         -1.4636513467        1.6960440338        0.5918408790
 C         -2.8959905344        1.8244463199        0.4876451488
 C         -3.7538383948        1.2083226897        1.4145703783
 C         -5.1202396231        1.3675978724        1.3281801681
 C         -5.6758131154        2.1387470581        0.3171577458
 C         -4.8452043147        2.7590286127       -0.6051545005
 C         -3.4774377341        2.6115212555       -0.5205415733
 C         -0.8726325965        0.5222213767        1.1578235839
 C          0.3679465324        0.5769117129        1.8259256297
 C          0.9732730528       -0.5659792795        2.2827360627
 C          0.3705765205       -1.8134357947        2.0944682546
 C          1.0698140734       -3.0202530496        2.5546950047
 O          2.1797554891       -3.0325971949        3.0426175245
 O          0.3614773663       -4.1498342102        2.3845898475
 C         -0.8758463325       -1.8810603193        1.4619195057
 C         -1.4862739898       -0.7386948414        1.0117634044
 C          2.8652156208        1.8238913755       -0.5382816724
 C          3.4094060376        2.6791846736        0.4344793046
 C          4.7723309072        2.8514348562        0.5453982644
 C          5.6350399017        2.1892393365       -0.3163033722
 C          5.1164340297        1.3522910652       -1.2939606135
 C          3.7549592700        1.1679423414       -1.4056360245
 C         -0.3579310608        0.4509304586       -1.8594129383
 C         -0.9340984984       -0.7216295615       -2.2791869161
 H         -2.4509462645       -3.9743111385       -3.2541371073
 H          1.4033318084       -2.9065224875       -1.1850122022
 H          2.4390227944       -0.8112239070       -0.4088666792
 H          1.0811459185        3.7623685696       -0.4695077783
 H         -1.1416034806        3.7736714808        0.2310192346
 H         -3.3279337756        0.6374490991        2.2262387853
 H         -5.7604307608        0.8948018168        2.0584398594
 H         -6.7463448732        2.2600749070        0.2520727696
 H         -5.2715896380        3.3594534386       -1.3954338182
 H         -2.8419799322        3.0818280744       -1.2568310433
 H          0.8262074092        1.5361415426        2.0064032873
 H          1.9237779158       -0.5275478907        2.7928093361
 H          0.8753953070       -4.9140449592        2.6909446897
 H         -1.3368848364       -2.8440188776        1.3116570838
 H         -2.4210022252       -0.8067043848        0.4766910584
 H          2.7485293897        3.1834640543        1.1244516591
 H          5.1698027981        3.5032191357        1.3095667137
 H          6.7018373763        2.3284783696       -0.2300889602
 H          5.7818171435        0.8461661975       -1.9778525987
 H          3.3586343149        0.5442771939       -2.1928329553
 H         -0.8360955005        1.3914448477       -2.0837028979
 H         -1.8759344584       -0.7107205367       -2.8051951697
  56
  -91.3175343157000       0.360994929090787      !
 O         -0.6009055469       -4.2179973995       -2.3640742201
 C         -1.0742210817       -3.1110998541       -2.5041685902
 O         -2.2794587185       -2.9300448387       -3.0769977966
 C         -0.4296955731       -1.8615606956       -2.0827011950
 C          0.8059058704       -1.9247834693       -1.4269628085
 C          1.4288462996       -0.7824727975       -0.9963910696
 C          0.8350509003        0.4818478604       -1.1903996678
 C          1.4291600235        1.6684245840       -0.6557513666
 C          0.6227969028        2.8019879456       -0.2926930243
 C         -0.6520497438        2.8039646952        0.1864135257
 C         -1.4409524245        1.6763236144        0.6018340960
 C         -2.8717430217        1.7606958401        0.4549064541
 C         -3.7406306533        1.1107226012        1.3479245158
 C         -5.1077574979        1.2144324892        1.2064091494
 C         -5.6532413346        1.9640238003        0.1739406038
 C         -4.8120638936        2.6235880870       -0.7107690308
 C         -3.4440830240        2.5313994782       -0.5712431240
 C         -0.8258502956        0.5241309781        1.1863743357
 C          0.4055335509        0.6234922110        1.8668674357
 C          1.0415335580       -0.4944565668        2.3425280578
 C          0.4785155070       -1.7618530858        2.1645603009
 C          1.2085082316       -2.9392451589        2.6522943498
 O          2.3113086497       -2.9092636616        3.1555119156
 O          0.5381726631       -4.0931998692        2.4916135943
 C         -0.7577952748       -1.8747081053        1.5188627352
 C         -1.3974707120       -0.7571043570        1.0467255763
 C          2.8584356466        1.7843178078       -0.5144196763
 C          3.7376921542        1.1131106771       -1.3809708737
 C          5.1027020900        1.2536126702       -1.2512821877
 C          5.6353464881        2.0605137020       -0.2560551917
 C          4.7833963175        2.7385197680        0.6040463971
 C          3.4173134729        2.6106197140        0.4750464109
 C         -0.3947692335        0.5313870916       -1.8790524191
 C         -1.0134062918       -0.6129074508       -2.3156274975
 H         -2.6514945464       -3.7878666997       -3.3374798148
 H          1.2419932489       -2.8959349048       -1.2513607403
 H          2.3520976578       -0.8505324023       -0.4426607623
 H          1.0980024597        3.7676942481       -0.4228522190
 H         -1.1411858689        3.7676918535        0.2718347805
 H         -3.3252605371        0.5567646164        2.1764765759
 H         -5.7570758260        0.7137561547        1.9095710843
 H         -6.7243097925        2.0392523501        0.0639741604
 H         -5.2303917350        3.2100196172       -1.5156789291
 H         -2.7992334359        3.0323876968       -1.2784451065
 H          0.8318040221        1.5980952880        2.0427060776
 H          1.9855517022       -0.4204682548        2.8607045640
 H          1.0700933930       -4.8350365873        2.8213871544
 H         -1.1876385229       -2.8530065267        1.3750340629
 H         -2.3216580142       -0.8614568189        0.4995941179
 H          3.3315980033        0.5131024509       -2.1814060127
 H          5.7602521151        0.7364936501       -1.9346024184
 H          6.7048589274        2.1646082933       -0.1552132460
 H          5.1918733915        3.3676526723        1.3812890819
 H          2.7643551262        3.1272611051        1.1632277014
 H         -0.8357278281        1.4916632966       -2.0947609253
 H         -1.9536904493       -0.5596036445       -2.8418115595
  56
  -91.3171841843000       0.249225141352107      !
 O         -0.7545485928       -4.1584393569       -2.4558951475
 C         -1.1923403430       -3.0366185957       -2.5931218299
 O         -2.3799693959       -2.8135515038       -3.1873988238
 C         -0.5193081739       -1.8108064029       -2.1466334447
 C          0.7051361331       -1.9147213506       -1.4754382443
 C          1.3535202138       -0.7947115658       -1.0232609252
 C          0.7981106294        0.4874333511       -1.2120578680
 C          1.4142916335        1.6551738815       -0.6598326230
 C          0.6198127756        2.8001493932       -0.3016471577
 C         -0.6553617062        2.8034792135        0.1752755713
 C         -1.4307081891        1.6678951188        0.5974601938
 C         -2.8603019883        1.7174648259        0.4341804006
 C         -3.7240581947        1.0468412629        1.3172241992
 C         -5.0912431515        1.1114843499        1.1551937584
 C         -5.6423086112        1.8420534049        0.1120380001
 C         -4.8069695150        2.5238115571       -0.7613975657
 C         -3.4392449845        2.4705837097       -0.6015926501
 C         -0.7921764963        0.5388327165        1.2029049048
 C          0.4298039037        0.6830265612        1.8923189807
 C          1.0948483213       -0.4085978012        2.3884696821
 C          0.5710602142       -1.6943379498        2.2228733157
 C          1.3323262342       -2.8414733525        2.7344402266
 O          2.4252522983       -2.7685500930        3.2545828528
 O          0.7053764021       -4.0196147333        2.5743361187
 C         -0.6557789715       -1.8520528860        1.5686160859
 C         -1.3245827546       -0.7602316476        1.0760228452
 C          2.8419171334        1.7362517134       -0.4928873022
 C          3.7212598094        1.0333714018       -1.3344312440
 C          5.0862300111        1.1287294956       -1.1693284346
 C          5.6194765473        1.9231257229       -0.1643832832
 C          4.7683531283        2.6373891478        0.6668723146
 C          3.4026856634        2.5535942869        0.5033569057
 C         -0.4215247865        0.5772807734       -1.9146640989
 C         -1.0663274342       -0.5443175976       -2.3714896482
 H         -2.7724388966       -3.6568597968       -3.4646477714
 H          1.1121061135       -2.8994273260       -1.3051347284
 H          2.2659840288       -0.8945725404       -0.4567773923
 H          1.1004848636        3.7624667348       -0.4357456345
 H         -1.1511953158        3.7641073055        0.2556201673
 H         -3.3059627524        0.5076299117        2.1540340147
 H         -5.7366334473        0.5943752612        1.8501334346
 H         -6.7132359063        1.8858533549       -0.0146719226
 H         -5.2297987656        3.0967872323       -1.5737004752
 H         -2.7986523895        2.9892552867       -1.2997010468
 H          0.8242640169        1.6722112490        2.0605051965
 H          2.0315718589       -0.2992045351        2.9136708281
 H          1.2564627048       -4.7385312004        2.9228414330
 H         -1.0554466809       -2.8444166959        1.4342046915
 H         -2.2399335930       -0.8997052398        0.5221103171
 H          3.3170182835        0.4427482913       -2.1427020789
 H          5.7436770575        0.5849512432       -1.8317309210
 H          6.6888217357        1.9903093389       -0.0344305809
 H          5.1772998920        3.2594831158        1.4495082508
 H          2.7501090141        3.0980662556        1.1698686082
 H         -0.8325971924        1.5514988279       -2.1264854750
 H         -1.9978744622       -0.4587984943       -2.9089072974
