50
 energy: -70.735231378575 gnorm: 0.000055783589 xtb: 6.7.1 (edcfbbe)
C           -2.40950675833272        4.90382809835798       -0.27747576094869
C           -2.74762217898208        3.44611401339889       -0.18319574452340
C           -4.09212504557983        3.05345430568495       -0.15702822199448
C           -4.46048156415215        1.72722707152908       -0.08973581432746
C           -3.46309951680501        0.76041385645222       -0.03284897527368
C           -3.46706999671254       -0.67246241534169        0.02530730459981
C           -4.47118516171163       -1.62869337539998        0.07222888136962
C           -4.09902847789946       -2.95517072896252        0.14147072024172
Br          -5.50383669351635       -4.26935089017167        0.19814596356714
C           -2.76484425570418       -3.38062417346993        0.18094900833898
C           -2.41878530428621       -4.83341312109888        0.27375496267273
C           -1.76629452486237       -2.42061485696809        0.13494598333485
C           -2.11127364896786       -1.07936786074844        0.04420503490798
N           -1.30226704690895        0.03196269808408        0.00636528317246
C            0.10467707744510        0.02593596292523        0.01406094190976
C            0.80878835819451        0.78543239826452        0.93880199950174
C            2.19261715320774        0.77793129029540        0.94083046277675
C            2.91548703228566        0.01075208979149        0.03432081420031
C            4.43569102327762       -0.02952063915142        0.00837672499996
C            4.92512128930865        0.47565967837996       -1.35727337654283
C            4.90251080123489       -1.47684659286137        0.22520232187917
C            5.06801045290694        0.84374888056696        1.09637229321991
C            2.19219348177007       -0.74689897299800       -0.88517879027215
C            0.81180815642370       -0.74156903954086       -0.90491411153451
C           -2.10613038919423        1.15417243422954       -0.03973226875899
C           -1.74597432893884        2.49156103607528       -0.12786053693850
H           -2.85180461150510        5.45034435096319        0.55478192258606
H           -1.33349284212631        5.05703974810404       -0.26326343850113
H           -2.80919171735248        5.32493570403321       -1.19958047519308
H           -4.85534335511567        3.81722797452559       -0.19972703572723
H           -5.50187573012910        1.44126436036865       -0.08408995336411
H           -5.51232314599681       -1.34516366264045        0.05774253258516
H           -1.34108930523751       -4.97098719263748        0.28899035135582
H           -2.83082137258164       -5.37948592982421       -0.57528703240412
H           -2.84093069232920       -5.26931570253785        1.17955720116030
H           -0.73099712977188       -2.72232518771310        0.18000632663438
H            0.26988115689659        1.37491441707718        1.66607339971098
H            2.69896548787198        1.38155373602949        1.67583465584882
H            4.55776510856048       -0.14900969015519       -2.16683527795503
H            6.01256926447101        0.46989107459014       -1.38946450673967
H            4.58044046772036        1.49372220793120       -1.52825755881493
H            5.98951070964386       -1.52022947598385        0.23637598552185
H            4.53241150644214       -1.85368913162041        1.17683667028247
H            4.54552798566155       -2.13283370391429       -0.56390326123956
H            6.15195488286842        0.77244738502919        1.03210195382918
H            4.76876550483756        0.51222844091138        2.08817132566501
H            4.79371437008703        1.88860997116508        0.96985084621422
H            2.70972935806137       -1.35343490436901       -1.61256917192044
H            0.27582248793084       -1.32365390718631       -1.64033243395179
H           -0.70656532240477        2.78228997051252       -0.16311012517441
