50
 energy: -70.735235180160 gnorm: 0.000032922672 xtb: 6.7.1 (edcfbbe)
C            1.63416199919829        5.56422880434889       -0.14142671805193
C            0.69803437231935        4.39382715565747       -0.09731770406684
C           -0.68430029037188        4.62036760232851       -0.08038977824802
C           -1.59046173051785        3.58248720856807       -0.05104659506232
C           -1.10975365033623        2.27827318882473       -0.02415282525198
C           -1.73281915960586        0.98660435205499       -0.00958063571816
C           -3.05173810050275        0.55606803049371        0.00516600631885
C           -3.28901969807659       -0.80250019123462        0.03639147184503
Br          -5.12375192024020       -1.38388464010700        0.04931354331647
C           -2.26935080442018       -1.76272842781913        0.06831680828499
C           -2.58466373918516       -3.22450032825553        0.11846230266765
C           -0.95399742764076       -1.32664424904363        0.05352348572878
C           -0.68571154634097        0.03389235223779        0.00018632944138
N            0.52414066890274        0.68714768809051       -0.00392577140303
C            1.79016938021397        0.07340157619194        0.00668635438126
C            2.73770644106761        0.42676228282805        0.95792436487959
C            3.98312101565872       -0.17660752182159        0.96134007039388
C            4.31895270725133       -1.15283633171359        0.03015615085851
C            5.67352869878216       -1.84412175224513        0.00484143858504
C            6.34438828652194       -1.58088094182128       -1.35176453224940
C            5.46762718645533       -3.35395914857483        0.19905299660861
C            6.61249466797462       -1.34432239357660        1.10695324221759
C            3.35368749687006       -1.49829478848351       -0.91415466756949
C            2.11115328184830       -0.89709023484092       -0.93596029197347
C            0.28426949301782        2.04713635409482       -0.01878537276677
C            1.18808348118209        3.09899102445050       -0.07007177888526
H            1.39585902728876        6.20987225340023       -0.98560969234821
H            1.53727495653309        6.15797163817340        0.76751744094755
H            2.66631136443961        5.23570886120593       -0.23253300967331
H           -1.04188705939852        5.63989986829881       -0.09921520768732
H           -2.65306171447362        3.77524559878892       -0.05272129604422
H           -3.86864590765408        1.26120204578282       -0.00443921943723
H           -1.67197141743375       -3.81313395467179        0.15131148309568
H           -3.16173083379364       -3.52012521715520       -0.75820631943191
H           -3.18360412630020       -3.45636936866823        0.99941408316633
H           -0.15043688153514       -2.04619075687610        0.09186549437328
H            2.49359899868205        1.16917859414577        1.70362225428071
H            4.68875646594825        0.12771607561754        1.71660267511491
H            6.46964534640621       -0.51128002767558       -1.50925651876055
H            5.75324060048441       -1.97912684231279       -2.17172865289241
H            7.32522215206995       -2.05075212207977       -1.38039407385355
H            6.42843662600906       -3.86431757483665        0.20176086424334
H            4.97172021852009       -3.54758297258350        1.14839193348941
H            4.86027994026260       -3.77794486591707       -0.59585426165240
H            7.56162525192579       -1.87224253507872        1.03926123822788
H            6.19486236672489       -1.53215550153373        2.09353851088606
H            6.81271053924464       -0.28067162782415        0.99925119510778
H            3.56999195902610       -2.24810865038535       -1.65965815368629
H            1.38762203289714       -1.16914451486725       -1.69055305974993
H            2.25137624602383        2.91231997352164       -0.09687263312384
