  79
       -122.04245082
 C         -1.0147671515        1.3863909417        4.3801824078
 C         -1.6934333844        0.7021165539        3.2327303461
 C         -1.3549759224       -0.6128563277        2.8989274913
 C         -1.9096649667       -1.2631200194        1.8150097524
 C         -2.8228497365       -0.5623162357        1.0378524446
 C         -3.2198378628        0.7494043502        1.3896647342
 C         -2.6455863113        1.3787113120        2.4809734414
 C         -4.1965107176        1.1501684445        0.4111578576
 C         -4.9234149947        2.3123096889        0.2088076095
 C         -5.7811837700        2.3969321724       -0.8789004706
 C         -6.5905302073        3.6333661794       -1.1263402142
 C         -5.8891454602        1.3164893465       -1.7615927191
 C         -5.1738608412        0.1488047843       -1.5858544161
 C         -4.3325853786        0.0632730980       -0.4849213455
 N         -3.4930032788       -0.9576099394       -0.0990471660
 C         -3.2620222119       -2.1446101494       -0.8009244850
 C         -4.3190389120       -2.9928286863       -1.0891669490
 C         -4.1022716077       -4.2110899463       -1.7078659059
 C         -2.7967987104       -4.6020451754       -2.0327533875
 C         -1.7386146701       -3.7719887175       -1.7828157328
 C         -1.9361912200       -2.4973790936       -1.2010462827
 C         -0.8507552715       -1.6080451144       -1.1014333168
 N          0.4404183241       -1.9101449734       -1.2505285639
 N          1.1444100038       -0.8492116808       -0.9902594266
 C          0.3147103809        0.1484883651       -0.6841359395
 C          0.6114341687        1.4654581794       -0.2964809057
 C         -0.4277017284        2.4228223668       -0.1977566641
 C         -0.1496980734        3.7447570186        0.0193369241
 C          1.1729300657        4.1818766454        0.1553732198
 C          2.2056695279        3.2601192133        0.1118362455
 C          1.9499080865        1.9119611918       -0.0765614650
 N          2.9996833849        0.9939689644       -0.0150623297
 C          4.1489393103        1.0308326750       -0.7660985721
 C          4.5205147372        1.9131860761       -1.7731466669
 C          5.7380871959        1.7111268885       -2.3904556494
 C          6.5857979147        0.6549428292       -2.0373142182
 C          7.8921063000        0.4898911630       -2.7514052234
 C          6.1995570751       -0.2347449232       -1.0426185556
 C          4.9841805376       -0.0536647089       -0.4052948980
 C          4.2885101603       -0.7693286930        0.6330512157
 C          4.5985010796       -1.8831073175        1.3953846945
 C          3.7029917905       -2.3114261578        2.3659215277
 C          3.9895492753       -3.5281145681        3.1918659901
 C          2.5151029066       -1.6021000758        2.5725156888
 C          2.1833066890       -0.4886919004        1.8285628023
 C          3.0685657047       -0.0865066359        0.8374216557
 O         -0.9939284007       -0.2791778946       -0.7708005149
 H         -1.7038258430        2.0484432376        4.8998831201
 H         -0.1843332043        1.9911151261        4.0119708527
 H         -0.6175145996        0.6630983124        5.0881135585
 H         -0.6334109584       -1.1356884110        3.5096569927
 H         -1.6261499387       -2.2754384811        1.5684320039
 H         -2.9269112315        2.3885304639        2.7409095711
 H         -4.8170570060        3.1449817793        0.8885987473
 H         -6.3491247339        4.4090814284       -0.4043143419
 H         -6.4029427860        4.0176075016       -2.1280825307
 H         -7.6545488258        3.4099531823       -1.0517918952
 H         -6.5507642068        1.4059882477       -2.6109561337
 H         -5.2569136885       -0.6663643596       -2.2884223560
 H         -5.3151277731       -2.7065071918       -0.7823717158
 H         -4.9322640072       -4.8697415351       -1.9091995626
 H         -2.6301594172       -5.5664081680       -2.4887541692
 H         -0.7280350001       -4.0467748340       -2.0394465159
 H         -1.4446387478        2.0841068351       -0.3212560338
 H         -0.9561720167        4.4603151954        0.0815230510
 H          1.3863311724        5.2253426840        0.3252604541
 H          3.2260830104        3.5789147313        0.2711849880
 H          3.8726015003        2.7240294143       -2.0692272467
 H          6.0499445058        2.3845389954       -3.1756194266
 H          8.4714499899        1.4111720782       -2.7066193838
 H          7.7201288397        0.2586504693       -3.8024902424
 H          8.4781320247       -0.3135774301       -2.3131203917
 H          6.8384502100       -1.0626740977       -0.7730655254
 H          5.5270225247       -2.4116324990        1.2373413956
 H          3.3305797674       -4.3440230027        2.8945118748
 H          3.8140399587       -3.3281112091        4.2476289110
 H          5.0179511099       -3.8548028693        3.0623377697
 H          1.8389317431       -1.9440072478        3.3429369382
 H          1.2614761936        0.0449574124        2.0047925458
