41
 energy: -63.264342520820 gnorm: 0.000046805805 xtb: 6.7.1 (edcfbbe)
C           -5.38445595009234        2.68727015348408        0.29559231706558
C           -4.14278494704371        3.14310571986962       -0.11820815655377
C           -3.07424332492145        2.27279098671322       -0.19565247989080
C           -3.22969803890786        0.92631641498888        0.13652222377188
C           -2.08145062417773        0.04255921580497        0.03914361524296
N           -0.82559035052988        0.52170148418583        0.16141338433290
C            0.01321001873759       -0.49018670110163        0.06587628991008
C            1.45290338813152       -0.35426377624989        0.20267109695967
C            2.22506320815555       -1.31874191184842        0.88976695231648
C            3.57475091337654       -1.16399762237270        1.01666909410114
C            4.23393553927240       -0.04003054509274        0.47552153588606
C            5.62765003810389        0.13925614116957        0.58379035784713
C            6.23056776476315        1.25006451642193        0.06294465596814
C            5.46632888423155        2.23212915216367       -0.58759479643816
C            4.11311922593489        2.08757577473966       -0.70847491725145
C            3.45977107948846        0.95119645290449       -0.18443397592379
C            2.07090420703982        0.76786726563769       -0.30274732196883
N           -0.66190216868850       -1.65835114872561       -0.15853823228927
C           -0.22538480133565       -2.91757005634201       -0.44184228118276
C           -1.12078647855147       -3.90066277337738       -0.70255121591932
C           -2.51033936141671       -3.62176914638473       -0.71367198920898
C           -2.95049802730421       -2.35456534492085       -0.47207649200436
C           -2.02409416853525       -1.33888460385836       -0.18111311203450
C           -4.47633040515002        0.48216980235580        0.57453137014638
C           -5.54360554201972        1.35753998556804        0.64808313515387
H           -6.22214541722067        3.36691164467282        0.35281922470477
H           -4.01066455094712        4.18261988512621       -0.38195779579194
H           -2.10095177508393        2.61440841386252       -0.51172152496726
H            1.73523953899851       -2.16259353611775        1.35444088185409
H            4.15957730783170       -1.90168041423938        1.54835434906893
H            6.21126732068378       -0.61850873943262        1.08759273349636
H            7.29937005354877        1.38152608010938        0.14894351956025
H            5.96016789304044        3.10382312125796       -0.99180272571714
H            3.52000857499806        2.84010965746636       -1.20782252706388
H            1.47388543020762        1.51683689997974       -0.80038562330981
H            0.84180404672061       -3.06877105023499       -0.47457422801050
H           -0.77148700490854       -4.89588395074294       -0.92462532858579
H           -3.20573262504703       -4.41433252836854       -0.93938263993344
H           -3.99765132441001       -2.10575975554345       -0.52372074993400
H           -4.60448802605190       -0.54281068719978        0.88839278915188
H           -6.50524052090701        1.00158752368568        0.98983058744185
