41
 energy: -63.264817492775 gnorm: 0.000055049779 xtb: 6.7.1 (edcfbbe)
C           -5.85149960047156        2.12426522327000       -0.30447997747455
C           -4.67450341967173        2.69916738643171       -0.75722401209184
C           -3.48120020081192        2.01349487141443       -0.65083833530587
C           -3.44461072353002        0.73572427434616       -0.09090636315605
C           -2.16823915719477        0.04925768312826        0.00617590575869
N           -1.01326473184541        0.74307923048366        0.07036639187560
C           -0.01635112786134       -0.11696531934371        0.14243616827033
C            1.37615298052323        0.28763190731052        0.20424632473111
C            1.67928278743616        1.48990110041719        0.88635168762151
C            2.96323045150618        1.93662490940614        0.97372773872372
C            4.02490175727040        1.21646555746244        0.38285190216986
C            5.36415594117432        1.64629078494369        0.46348699862399
C            6.36488348591800        0.93335487996912       -0.13669692889264
C            6.06993265820786       -0.24106711183470       -0.84623507402160
C            4.78095260808629       -0.68505120281079       -0.94136080629016
C            3.72629216954784        0.02536992654622       -0.32948853972775
C            2.39032476255393       -0.41282969623807       -0.40910610844541
N           -0.48671973513250       -1.40146228300509        0.13807539944641
C            0.13909267881237       -2.60155709389427        0.29592983275089
C           -0.57911147798406       -3.74959629490008        0.24943394705925
C           -1.97949640917127       -3.71197602657328        0.03251644253583
C           -2.61890628370664       -2.51196669095356       -0.05984723872048
C           -1.87994794566296       -1.32044124768041        0.03598277014866
C           -4.62961972186149        0.17492558175998        0.38272495269780
C           -5.82220341734782        0.86499044064502        0.27100355633099
H           -6.78631330248007        2.65867964084994       -0.39082050391017
H           -4.69065731916845        3.68645470471778       -1.19606496465440
H           -2.55644531576452        2.44909418663154       -0.99618703222823
H            0.86146039933213        2.03660562471532        1.32895239622332
H            3.18935209865770        2.85352463087486        1.49923949518559
H            5.58554994716117        2.55291663170436        1.00871776639329
H            7.38945351981046        1.26929712523282       -0.07134913504424
H            6.87190825834577       -0.79109235182578       -1.31682106212685
H            4.55041327831436       -1.58965414057359       -1.48691815871118
H            2.17945537209315       -1.29318192890908       -1.00025881297960
H            1.20174654456035       -2.57780089494228        0.47686843274648
H           -0.08066892192880       -4.69699299879542        0.37503542299946
H           -2.52735973434090       -4.63760829737544       -0.04289609893972
H           -3.68350851336452       -2.45353049820600       -0.21626840200901
H           -4.61448420082108       -0.78935506226767        0.86794544018438
H           -6.73466833755404        0.42041394028551        0.64244200440671
