41
 energy: -63.185324048605 gnorm: 0.000072192646 xtb: 6.7.1 (edcfbbe)
C           -5.83415772847290        2.15257118979720        0.29486075122030
C           -4.61234224178539        2.79880950954922        0.45562210689523
C           -3.43656816850257        2.09639330665933        0.35372555868346
C           -3.44104359735035        0.70589549962643        0.09827360636556
C           -2.19297992219112        0.03547670267952        0.01910074268209
N           -1.02787703365743        0.75962966231787       -0.04452523406705
C           -0.03568000423457       -0.09409534716127       -0.14338525464681
C            1.34658888383984        0.31319500892695       -0.18900414450885
C            1.64201640790615        1.56572522477677       -0.77869029287421
C            2.92582654760228        2.01546495002843       -0.85125770364456
C            3.99588845220689        1.25514935594058       -0.32341102613858
C            5.33129768198527        1.69045726897047       -0.38770918583238
C            6.34140714639321        0.93690066415888        0.15362476207071
C            6.05542074951886       -0.28113053937461        0.78384272296785
C            4.76588245987633       -0.73319512957775        0.86247989397304
C            3.70444765198855        0.01596821618272        0.30904249410980
C            2.37352678844423       -0.43165830178357        0.36654376413171
N           -0.49167543448186       -1.40205716203268       -0.17276064374479
C            0.18566425462013       -2.57711485503237       -0.39581213009169
C           -0.52195292146545       -3.77811869325159       -0.32852846721679
C           -1.86710326965503       -3.78577467768627       -0.06967056806978
C           -2.57155910595590       -2.54428440734493        0.06779386194440
C           -1.86602780106662       -1.36794160440401       -0.02885864021725
C           -4.68749276541917        0.07304044737055       -0.08281762943924
C           -5.85718702293429        0.79055022291470        0.01595344515558
H           -6.75802381107375        2.70537404284031        0.37519588851283
H           -4.59049856030406        3.85932721587622        0.66130259138903
H           -2.48097939576390        2.58005850399240        0.47799059248776
H            0.81972196172021        2.14060870127985       -1.17430684057194
H            3.14726562914598        2.96599230645670       -1.31492452798694
H            5.54840490362630        2.63251706390799       -0.87069927365725
H            7.36431887408277        1.27958004492462        0.09964146417837
H            6.86172516943598       -0.86138534097935        1.20832087461928
H            4.54136110034924       -1.67315939858272        1.34667968519681
H            2.16430697478187       -1.34550469686347        0.90394840713786
H            1.22094653080637       -2.51277439194499       -0.67588726584929
H            0.01947126657320       -4.69786425068963       -0.48473058807413
H           -2.41614316893398       -4.70936600103902        0.00657094636416
H           -3.62833391589081       -2.55314471078071        0.25807338570344
H           -4.72691352792802       -0.97227824392596       -0.33971218143796
H           -6.80436180500423        0.29132369136340       -0.13153800487879
