  112
       -152.09597513
 C         -5.9676682467       -5.1710358890       -2.5595559051
 C         -6.2838459551       -4.7862708984       -1.1073190300
 C         -5.4852781345       -5.6788221161       -0.1463387035
 C         -7.7738773706       -5.0402662415       -0.8621210115
 C         -5.8932504996       -3.3337392410       -0.8762416819
 C         -4.5562321034       -2.9554400848       -1.0553756871
 C         -4.1070896210       -1.6659137091       -0.8534037470
 C         -5.0263388841       -0.7119524896       -0.4458433439
 C         -6.3841801135       -1.0588886718       -0.2932825362
 C         -6.8090882529       -2.3639005298       -0.5028597849
 C         -7.0762655287        0.1479496449        0.0682796550
 C         -8.4037304437        0.4179984412        0.3725383012
 C         -8.7802690782        1.7033230939        0.7254910808
 C        -10.2156939395        2.0728764709        1.0697576934
 C        -11.1714337913        0.8813231661        0.9618502640
 C        -10.7019321180        3.1618255237        0.1029741731
 C        -10.2683454877        2.5960437807        2.5122563493
 C         -7.7933629197        2.6962298232        0.7812968200
 C         -6.4667468436        2.4548837865        0.4858034528
 C         -6.1071942946        1.1712086101        0.1063557980
 N         -4.8657621594        0.6416685228       -0.2041767512
 C         -3.6610288366        1.3388243172       -0.2368846149
 C         -2.5310520151        0.8142297749        0.3930082545
 C         -1.3336473822        1.4960974669        0.3592414331
 C         -1.2382781569        2.7261159466       -0.2922935906
 C          0.0172975751        3.5131365697       -0.3003990582
 O          0.0095435478        4.7304630338       -0.3404486808
 C          1.2828065157        2.7428261812       -0.2404835424
 C          2.3660540649        3.2714658360        0.4602520851
 C          3.5521300155        2.5759095826        0.5543807234
 C          3.6939065424        1.3452040367       -0.0881732638
 N          4.8821429404        0.6258342503        0.0110780883
 C          4.9836019320       -0.7293289398        0.2764724340
 C          4.0010334096       -1.6645880186        0.5615513419
 C          4.3952436324       -2.9604323546        0.8271601611
 C          5.7369246743       -3.3634500693        0.8305740207
 C          6.0662256082       -4.8197440898        1.1244904306
 C          5.5648381936       -5.1751274686        2.5314947745
 C          5.3749557962       -5.7126670395        0.0841134886
 C          7.5696712256       -5.1048629249        1.0687091215
 C          6.7120452132       -2.4122377136        0.5796000198
 C          6.3429520908       -1.1013730447        0.3092781631
 C          7.0996322404        0.0916959171        0.0449459480
 C          8.4614829488        0.3383443688       -0.0649946027
 C          8.9071764150        1.6174634138       -0.3540364190
 C         10.3841087031        1.9647133080       -0.4716281205
 C         10.6674686813        2.5083362806       -1.8791513084
 C         11.2927906666        0.7542423338       -0.2391623802
 C         10.7319694532        3.0299103587        0.5780307225
 C          7.9556047036        2.6266183443       -0.5520215717
 C          6.5961900611        2.4082243458       -0.4519707728
 C          6.1636120212        1.1319285889       -0.1272941211
 C          2.6278238418        0.8367603810       -0.8322707566
 C          1.4328923277        1.5213969068       -0.8965080754
 C         -2.3765288312        3.2588132503       -0.8978781718
 C         -3.5703351617        2.5710004961       -0.8862609577
 H         -4.9065533851       -5.0783915501       -2.7737571408
 H         -6.2636670712       -6.2010443785       -2.7472315881
 H         -6.5110707943       -4.5248130339       -3.2459146102
 H         -4.4159843357       -5.5910611791       -0.3178978245
 H         -5.7666872807       -6.7211039495       -0.2809133167
 H         -5.6889635151       -5.3963686304        0.8846539368
 H         -8.3879203146       -4.4563017828       -1.5438284721
 H         -8.0482653974       -4.7992221779        0.1623275475
 H         -7.9944606121       -6.0924925787       -1.0301284814
 H         -3.8346153328       -3.6944046621       -1.3689026788
 H         -3.0707613657       -1.4149103460       -1.0241190616
 H         -7.8536810731       -2.5922867248       -0.3742147280
 H         -9.1154949227       -0.3893307647        0.3333522514
 H        -11.1856346701        0.4815152813       -0.0494541097
 H        -10.8917609099        0.0913814082        1.6550978462
 H        -12.1808641183        1.2030701388        1.2099195915
 H        -10.6489668170        2.8036257607       -0.9231032133
 H        -10.0976053407        4.0612095430        0.1809131883
 H        -11.7340828473        3.4254854289        0.3239464078
 H        -11.2923909210        2.8430311069        2.7841439052
 H         -9.6601203955        3.4878856342        2.6340685257
 H         -9.9013676251        1.8372099491        3.2003488328
 H         -8.0673844807        3.6987026650        1.0722742125
 H         -5.7365906224        3.2458213211        0.5672866649
 H         -2.6101257064       -0.1186714300        0.9305887336
 H         -0.4745785620        1.0920345693        0.8740575543
 H          2.2476991956        4.2251899825        0.9523715280
 H          4.3688742542        2.9674222917        1.1411833629
 H          2.9559444354       -1.3949485958        0.5927273483
 H          3.6246195284       -3.6839367134        1.0457242162
 H          5.8107735377       -6.2083439329        2.7674537725
 H          6.0347477146       -4.5302539187        3.2713007134
 H          4.4878960093       -5.0552286294        2.6114515346
 H          4.2944922846       -5.6053453558        0.1221225667
 H          5.7084555014       -5.4489167791       -0.9175348792
 H          5.6188223682       -6.7573101478        0.2654684700
 H          8.1058523567       -4.5272788809        1.8181102929
 H          7.9741487615       -4.8776368179        0.0850042081
 H          7.7461399109       -6.1596884557        1.2692663729
 H          7.7601052523       -2.6596555677        0.5935939548
 H          9.1460369808       -0.4812460038        0.0750357088
 H         11.7259135057        2.7364119927       -1.9862327781
 H         10.1034533865        3.4155564223       -2.0763585238
 H         10.3957037823        1.7683950203       -2.6292115043
 H         12.3332301790        1.0602496000       -0.3269618209
 H         11.1476381185        0.3413577646        0.7564116337
 H         11.1077428295       -0.0214375350       -0.9786966288
 H         10.5170911097        2.6563726629        1.5772187571
 H         10.1592428734        3.9402343755        0.4246100884
 H         11.7894561406        3.2794570816        0.5225884704
 H          8.2859654800        3.6241576580       -0.7981267761
 H          5.8991844606        3.2116217967       -0.6367126996
 H          2.7530341787       -0.0897351894       -1.3720152438
 H          0.6190141298        1.1246417328       -1.4855810454
 H         -2.2976236547        4.2156640209       -1.3919040319
 H         -4.4363012300        2.9716220400       -1.3907487909
