92
 energy: -119.445935243930 gnorm: 0.000028749783 xtb: 6.7.1 (edcfbbe)
C            5.47648195029316        0.89053451616764       -1.48156980177427
C            5.10883811939810        1.78730099541497       -0.29851124405635
C            4.97750721235805        0.99752020543581        1.00215266462336
C            3.86091714940220        2.59838556757067       -0.56474562282726
C            4.00784795801906        3.98177473585431       -0.61587846497355
C            2.94155444269727        4.82916219263933       -0.84494587050321
C            1.67981232289443        4.29266618825433       -1.02304829281179
C            1.51273117702238        2.92339176816787       -0.97453700911019
C            2.58250322895438        2.05568172797849       -0.74829318866082
P            2.27149571671750        0.22606293469881       -0.80765545090688
C            1.60838306735974       -0.09961714637393        0.88143355729734
C            1.15568269009684        0.96704512173786        1.65669434324134
C            0.72941533204713        0.78610483502975        2.95687682320342
C            0.77243723452574       -0.47774026963034        3.51479756590277
C            1.27251237211252       -1.52972578776649        2.77179620450011
C            1.70904892106176       -1.37513383998609        1.45985895017359
C            2.30997719168013       -2.59851328657658        0.79825553516404
C            1.64161281125036       -2.97085718208776       -0.52063953069903
C            3.82317010743694       -2.45579319089280        0.61461844022301
C            0.83625457562528        0.32318601725322       -1.97084689545607
C            1.31667196234260        0.67178207212995       -3.23758587229532
C            0.47681163008307        0.85086669943432       -4.31485151557143
C           -0.88675738213932        0.67122064488173       -4.14326036636799
C           -1.37454641181364        0.29374128675456       -2.90870630431485
C           -0.53425022856829        0.09493344855621       -1.81097188231393
P           -1.26216842536234       -0.43334729459546       -0.19912656909130
C           -1.72654907762121       -2.17311358786549       -0.58951669461515
C           -1.49531119908551       -2.75282577740725       -1.83473649362880
C           -1.85647870861162       -4.06285735992456       -2.08674582919019
C           -2.45415468301291       -4.81408457055476       -1.09046469626484
C           -2.66615783594738       -4.25325597067032        0.15556506196898
C           -2.30173894289126       -2.94161813348312        0.43176978009171
C           -2.53279428569235       -2.37345044299426        1.80983133810838
C           -1.87102958188840       -3.24222831258310        2.87980141772432
C           -4.02604061126549       -2.20899376959094        2.09571021274353
C           -2.95081438476794        0.30829637553723       -0.37237872283832
C           -4.00764304849113       -0.40188598726883       -0.94170902982300
C           -5.27440460302106        0.14392632664417       -1.02248993791334
C           -5.50916862331382        1.41215839408759       -0.52121136745210
C           -4.47033026925516        2.12137459342028        0.04970838638720
C           -3.18785583101202        1.59118626054579        0.12991408400351
C           -2.08571669852558        2.39924417993029        0.76326221074728
C           -2.35219971524430        2.58597998661864        2.25681278092775
C           -1.90791142746932        3.74745552225465        0.06582832747412
H            5.59147177177947        1.48975521281415       -2.38285147379745
H            4.70934730606273        0.14161541940765       -1.66164714023827
H            6.41626199067496        0.37975324663995       -1.28290758196666
H            5.93444805702635        2.49793975522456       -0.16817929425926
H            4.13344712521704        0.31508915212470        0.95718163716544
H            5.88169095054841        0.42155449698483        1.18749736758353
H            4.81917532863951        1.67602659505026        1.83857446268790
H            4.99308300032466        4.40570384292042       -0.47633010108328
H            3.09538054824695        5.89760179296840       -0.88475618333320
H            0.82989356537251        4.93451134151448       -1.20428563702649
H            0.52236923151507        2.51704485797787       -1.12003636118216
H            1.14657830366614        1.96183852927184        1.23673958519434
H            0.37717937943695        1.62846726215749        3.53344261815488
H            0.44170824108555       -0.64145526771061        4.53008993916715
H            1.34681758651861       -2.50477455788484        3.23421030241529
H            2.14903077615138       -3.43703901497490        1.48756322002918
H            1.72931999403401       -2.16714209015818       -1.24971693019300
H            0.58791874763486       -3.18138817709027       -0.36173314651309
H            2.11187241585695       -3.85980798969633       -0.93668029664847
H            4.24674507692142       -3.41044644808264        0.30927870531810
H            4.05217297766606       -1.72277257396027       -0.15404402836146
H            4.29506201952438       -2.15123188958654        1.54651387176038
H            2.38394745114864        0.81883785089026       -3.35978163113753
H            0.87717807462970        1.12976071646175       -5.27856801364584
H           -1.56710213257269        0.81629323270125       -4.96990369064389
H           -2.43848479353360        0.14658911378750       -2.78836722844340
H           -1.02408256585263       -2.17820201267544       -2.61863390798672
H           -1.67306778587500       -4.49275135732854       -3.06071637514181
H           -2.74944054586935       -5.83561735579325       -1.28106924269680
H           -3.12633128719894       -4.85073529644229        0.92879530194613
H           -2.06425743149147       -1.38001977020967        1.84852800430439
H           -1.90689937194471       -2.73877498529018        3.84325247855787
H           -2.37727926440910       -4.19961151993989        2.97699868606818
H           -0.83082352355181       -3.42394191384235        2.62251107614152
H           -4.17244859448355       -1.78766665161820        3.08804756326422
H           -4.48428605930920       -1.54305481889630        1.36787119940451
H           -4.53371746217605       -3.17017016032127        2.05124856727545
H           -3.84257882651196       -1.39694386370764       -1.33016606842274
H           -6.07585536264079       -0.42354060463008       -1.47342204694915
H           -6.49730994674104        1.84544765377635       -0.57469649439765
H           -4.66192716985450        3.10944178903524        0.44199431887264
H           -1.15200262976213        1.83242721955762        0.65702269339964
H           -3.29248900902434        3.10762277667738        2.42092702614973
H           -2.40356738171302        1.61823519556022        2.75131845050533
H           -1.55288392416331        3.16768172983198        2.71045940489235
H           -2.77716858426231        4.38350445567848        0.21586271765078
H           -1.03710438573330        4.26172216740028        0.46699538691391
H           -1.76863807939168        3.60668122681938       -1.00469374172559
