92
 energy: -119.456797651172 gnorm: 0.000028018657 xtb: 6.7.1 (edcfbbe)
C            0.43015440403106        2.49133248771967       -2.95950354800324
C            0.41988459823864        2.77870820063147       -1.45788628265700
C           -0.33713144204471        4.06886837652087       -1.14967610179780
C            1.83308621083634        2.79998998077396       -0.93240439318708
C            2.66110430819415        3.88707605487276       -1.18087587674788
C            3.96016372149453        3.92312854455128       -0.70884432898473
C            4.45426803684287        2.85855805343387        0.02381060314368
C            3.65022567787909        1.75979353702139        0.26370622859069
C            2.34115222361646        1.71636438194557       -0.20928938439662
P            1.25327482820680        0.24561272924373        0.03876145925302
C            2.48552563587222       -0.94943257785337        0.69324491411347
C            2.47377103029407       -1.36101261575577        2.02317110838416
C            3.37852514775392       -2.29824202121285        2.48539507287245
C            4.30655956996654       -2.84287274933195        1.61631257465777
C            4.30391800931318       -2.46361191301431        0.28593348029850
C            3.39572031580252       -1.53252254207378       -0.20067432346552
C            3.39609284699534       -1.18086563434425       -1.66830972249635
C            4.70117530850070       -0.50481347270144       -2.08965674312612
C            3.14145057307517       -2.42500425743583       -2.52032841586512
C            0.44966296652887        0.79260237863787        1.60632697000247
C            1.15608883609270        1.59941051062391        2.50028561627740
C            0.58962192759213        2.04949064498433        3.67559104489365
C           -0.71178751141855        1.69161733053077        3.99352560218868
C           -1.41874405127817        0.89077896456902        3.12325489466977
C           -0.86800617113322        0.45015320713006        1.91517175992340
P           -2.07884332079418       -0.61905908610753        1.03538533884490
C           -1.32510178398931       -1.18103684409938       -0.54506103133908
C           -1.50732588546435       -0.47155967574961       -1.72883641410375
C           -1.08598440566568       -0.99481909069738       -2.93597900963018
C           -0.52083499292122       -2.25654924404543       -2.97548022599154
C           -0.35909051352798       -2.97724579985032       -1.80491333313520
C           -0.73902114097313       -2.45362677861707       -0.57801001691376
C           -0.57221018324541       -3.24407392559392        0.69700401643806
C            0.67055841140086       -4.13207625857283        0.70316610126321
C           -1.82375677025430       -4.09058357782004        0.94173422320987
C           -3.20350667616390        0.68571782572208        0.38474944232758
C           -2.91084725486190        2.04252773809244        0.49175082666857
C           -3.80263708049029        2.99825369153068        0.04245141534145
C           -5.00367245930839        2.60732000930663       -0.52182642557187
C           -5.30289975610104        1.26157952015797       -0.62997645543684
C           -4.42151239375132        0.28718054875622       -0.18128386488799
C           -4.78269618633051       -1.17104415410494       -0.31077689749033
C           -4.94011257260464       -1.57600118024685       -1.77613977269940
C           -6.04412766052465       -1.49456343671970        0.49028828967534
H            0.98976453410423        3.25713560384059       -3.49276251771727
H           -0.58624330727048        2.47016248437827       -3.34653390439427
H            0.89467892207840        1.52599492024502       -3.15110185007637
H           -0.10990198655755        1.95468059364785       -0.96126550707537
H            0.06368682780562        4.90743176810449       -1.71396792973968
H           -1.38575787539192        3.95298116921372       -1.41528556861217
H           -0.27162818452873        4.30377473787916       -0.08890606150871
H            2.28686879139296        4.72312043227296       -1.75292848984735
H            4.58507058884339        4.78110520403400       -0.91012108314520
H            5.46519905406895        2.87969287439893        0.40543033582383
H            4.04448057544793        0.92801543380638        0.83181267477580
H            1.75118216353593       -0.94411561967968        2.70973553604104
H            3.35857541515283       -2.59937369655367        3.52275006287241
H            5.02478881404361       -3.56833161378740        1.96968565968759
H            5.02289699493250       -2.90709939103787       -0.38752486784303
H            2.57059221532834       -0.47804029790712       -1.84803410877125
H            4.85643738140805        0.41463055026532       -1.53056726525468
H            4.66716884473369       -0.25939495632221       -3.14908428653118
H            5.54986219995890       -1.16283178651965       -1.91703885423905
H            2.21988042790393       -2.90884114709710       -2.20889691938196
H            3.04814833391029       -2.14643771662079       -3.56777332031623
H            3.95861251035269       -3.13637756866489       -2.42708314633930
H            2.17434296755400        1.87674400667531        2.26819256608554
H            1.16404296853020        2.67294402079074        4.34540773901360
H           -1.16428003757622        2.03022955462843        4.91415515070408
H           -2.43479916644293        0.59727862093865        3.36106202979055
H           -1.97576901535323        0.50179886538711       -1.70544462095555
H           -1.21615904160747       -0.42632220340943       -3.84560179583400
H           -0.21001293727623       -2.68396204150990       -3.91796136428170
H            0.06042926144810       -3.97107968388866       -1.85412497290971
H           -0.47427903946852       -2.52203980121604        1.52007834143183
H            1.54520794218358       -3.57775239991380        0.37323914142078
H            0.85797854415549       -4.49520257577476        1.71137475405071
H            0.53714274953732       -4.99684314065226        0.05696448223936
H           -1.99582835592933       -4.76079609738781        0.10177118799394
H           -1.70605835232284       -4.68480088658588        1.84507111093172
H           -2.69863228350140       -3.45426333266599        1.06005490796041
H           -1.97504743740042        2.36022689416321        0.92759629700170
H           -3.55860965578174        4.04691979895610        0.13516554150410
H           -5.70611589978471        3.34791824374139       -0.87591193542590
H           -6.24362799317639        0.96550426464483       -1.07094552848569
H           -3.95653099449238       -1.76029188520994        0.10883302847651
H           -5.75367490024710       -1.02828144655610       -2.24591238106628
H           -4.02231404502581       -1.37297098454597       -2.32400662446640
H           -5.15547436828077       -2.63993061271138       -1.84836151967833
H           -6.25237010420851       -2.56147478394383        0.44724481522433
H           -5.91205759789181       -1.20919632009447        1.53182888005974
H           -6.90507853918986       -0.96133265296377        0.09447637455479
