69
 energy: -117.602878816339 gnorm: 0.000056659667 xtb: 6.7.1 (edcfbbe)
C           -7.90646820767123       -4.01358233482938       -0.06278446528323
C           -6.61513737788350       -3.77057844261420        0.36042891492810
C           -6.10063615648912       -2.48297159603401        0.33990539013697
C           -6.86514036779872       -1.41605618344145       -0.11714096151471
C           -8.18644921105799       -1.66899550171377       -0.50934511552928
C           -8.69507995894717       -2.95487434354541       -0.48898322602536
O           -9.04143296121176       -0.67002449131046       -0.91131007943487
C           -8.55261834460247        0.61546350923401       -0.92018358441251
C           -9.42208442850662        1.60986340673391       -1.32981048410570
C           -8.99543372329953        2.92788941076543       -1.40057479064583
C           -7.68935255312830        3.23672858007207       -1.07736486933222
C           -6.81472964641465        2.24303569416808       -0.66419284938331
C           -7.23501947645250        0.92280849911887       -0.55524175259916
N           -6.37778679401488       -0.10518163309991       -0.14755554901713
C           -5.04666566553913        0.17253454530278        0.22071597791312
C           -4.77567133698783        0.99894346256281        1.31233062476032
C           -3.47332768765161        1.27170126066966        1.67077760168905
C           -2.41687168823488        0.72014063036520        0.94220957548743
C           -1.05828875781604        1.01323763839570        1.32642544625435
N           -0.66732353417801        1.77381713470927        2.30964407602781
N            0.67322626337927        1.76908376741279        2.31023112807419
C            1.05967938730969        1.00604727162782        1.32701140124729
C            2.41671310539640        0.70640535232632        0.94271763589817
C            2.68435276101601       -0.09992637726973       -0.16482499720899
C            3.98774085021053       -0.37248530121193       -0.52349715288489
C            5.04519564529159        0.15240268004405        0.21889183404187
N            6.37559377955840       -0.12409917447662       -0.15110155418483
C            7.24535855989638        0.91158279725153       -0.51143486737958
C            6.83582680196261        2.23800966818274       -0.57953740892323
C            7.72250077874871        3.23926480690525       -0.94591156945481
C            9.03051888780189        2.93252409554847       -1.26331792250363
C            9.44677306246004        1.60972032916101       -1.23431341349326
C            8.56512367262416        0.60780293630924       -0.87137609664492
O            9.04474442559722       -0.68058513604945       -0.90348019880024
C            8.17763595449205       -1.68710846717869       -0.54956452407498
C            8.67753342662991       -2.97644212614527       -0.57097257000634
C            7.87729452987724       -4.04452852935900       -0.19287753325453
C            6.58318443805313       -3.80781513535410        0.22542777799856
C            6.07756202247787       -2.51671782237012        0.24670585469349
C            6.85366931362630       -1.43899102894578       -0.16313554921784
C            4.77620488247015        0.95476613750588        1.32906451711563
C            3.47504553954847        1.23178099264763        1.68782358782973
O           -0.00081861909412        0.49103932654060        0.65771784591549
C           -2.68692632790687       -0.10807444285230       -0.14845500727241
C           -3.99123715865536       -0.37850032177470       -0.50515696799097
H           -8.31096374385605       -5.01343466445450       -0.05357433281612
H           -5.99536358824274       -4.57953108379074        0.71569412590400
H           -5.09648200460165       -2.30613048480369        0.69128188443134
H           -9.71534046515500       -3.10478064166262       -0.80572485925989
H          -10.42936644299221        1.32909738487609       -1.59491740482105
H           -9.68158439538706        3.69718980049339       -1.71786103211720
H           -7.33534343222717        4.25380276806851       -1.14677857820701
H           -5.79277757494574        2.49765381760012       -0.43244119143973
H           -5.59470526463833        1.41632692741695        1.87842243189991
H           -3.24745650616006        1.90254089698625        2.51554407071748
H            1.86692005712037       -0.50052953355447       -0.74509205893146
H            4.19706957627419       -0.98641967381119       -1.38676429742413
H            5.81287785278074        2.49232340751987       -0.35186748957468
H            7.37631482564577        4.26068645657611       -0.98350361669257
H            9.72600530221712        3.70755689737970       -1.54423769590236
H           10.45526655570773        1.33096793675070       -1.49691217846834
H            9.70036713902988       -3.12153094829183       -0.88159930494614
H            8.27500904222607       -5.04686030716442       -0.21606981542799
H            5.95410964071509       -4.62480056834789        0.54408578922782
H            5.07109721238549       -2.34618719308187        0.59447158889834
H            5.59627123055037        1.35067423576733        1.90886743669791
H            3.25125909397450        1.84536372750680        2.54576506804346
H           -1.87067299877976       -0.52887782473066       -0.71592958016385
H           -4.20324505509060       -1.01223023068421       -1.35332507276536
