69
 energy: -117.531769969196 gnorm: 0.000085908049 xtb: 6.7.1 (edcfbbe)
C           -9.01790829128229       -2.96250750703063       -1.27133350366758
C           -7.69515111536352       -3.25055118690473       -0.97442321836619
C           -6.82183942012852       -2.24352790223955       -0.60763596784045
C           -7.25811221041767       -0.92149895131591       -0.51862360250196
C           -8.59394746945210       -0.63690538800350       -0.85499502205495
C           -9.46306600108928       -1.65232942440223       -1.22048737005722
O           -9.08759605299837        0.63777619402951       -0.85624527287109
C           -8.24105621435125        1.64974015165153       -0.49936691443222
C           -8.75752782442527        2.93552020112850       -0.49648763185434
C           -7.96234992203234        4.00250669151591       -0.11347142332663
C           -6.65459871449408        3.77589411124954        0.28545081003388
C           -6.13117333561174        2.49629739607260        0.28388258380792
C           -6.90499868141658        1.41160874290118       -0.12929895351511
N           -6.41097551490707        0.11457017886291       -0.14942647198562
C           -5.06743716869656       -0.14765518108068        0.20452892623409
C           -4.77359089099256       -0.93438270944155        1.33000096207708
C           -3.47510104018479       -1.18592767509776        1.67861407921661
C           -2.40727177244456       -0.66710778686198        0.90638574685410
C           -1.07410046985175       -0.93413122554744        1.27124622228752
N           -0.65876600950219       -1.65967136856306        2.30343486106214
N            0.65637401987111       -1.66086550222128        2.30317554349362
C            1.07269606237179       -0.93599043923189        1.27091160930654
C            2.40618427790657       -0.67110543760315        0.90589649786188
C            2.71787036262792        0.11554794686056       -0.22934701094789
C            4.02064305954412        0.36933988751874       -0.56659020023114
C            5.06717814211732       -0.15660879733424        0.20352429603924
N            6.41103066189120        0.10331143896115       -0.15092503832296
C            6.90693945087616        1.39961174439265       -0.13115253620499
C            6.13536299487853        2.48513887477345        0.28403002310385
C            6.66042385943116        3.76406115347281        0.28487432664861
C            7.96757683876184        3.98911917806494       -0.11688500315083
C            8.76064242755037        2.92121744573404       -0.50176691261270
C            8.24257375221626        1.63607976251688       -0.50376341369408
O            9.08707339683509        0.62303077800958       -0.86241173807892
C            8.59184889642886       -0.65105545253681       -0.85994852281346
C            9.45911350906821       -1.66765166765280       -1.22658126230823
C            9.01220645571251       -2.97727490965720       -1.27647837283214
C            7.68955476110080       -3.26358897809766       -0.97745193752037
C            6.81810361825000       -2.25539890289817       -0.60941953826355
C            7.25620422681210       -0.93392078666946       -0.52136142313738
C            4.77212343288502       -0.94244257767276        1.32928753412309
C            3.47323971269989       -1.19154483889968        1.67815500535352
O           -0.00038576753522       -0.43308502111508        0.55890433136206
C           -2.71772170382001        0.12019519280461       -0.22874009263746
C           -4.02010413034214        0.37640983563751       -0.56575556762729
H           -9.69886964776104       -3.74951826078707       -1.55344491779753
H           -7.33458448796639       -4.26571102128626       -1.03185232682560
H           -5.79061932296891       -2.47304732269864       -0.39294869051434
H          -10.48025699952694       -1.39111216598421       -1.46524989337549
H           -9.78520548914760        3.07418104230844       -0.79221000176748
H           -8.36863164117426        5.00134297618798       -0.11514845204216
H           -6.03452057637595        4.59850751960237        0.60606814262886
H           -5.11808963779000        2.32535913255208        0.61047096771168
H           -5.58553649156811       -1.32181496291648        1.92843843005629
H           -3.23144195844411       -1.77453213903103        2.54874800071035
H            1.90932059122756        0.50612639867863       -0.82922738891782
H            4.25364697139875        0.96066729493501       -1.44077750737584
H            5.12277190987793        2.31533587102609        0.61273920372753
H            6.04208666737588        4.58735458152203        0.60710781859783
H            8.37508275449514        4.98745371365035       -0.11925364550773
H            9.78786583430549        3.05868500831765       -0.79961267093295
H           10.47624638225165       -1.40776971126279       -1.47300393802644
H            9.69173448720429       -3.76519954555132       -1.55949923099075
H            7.32760836331301       -4.27830131505083       -1.03416942240653
H            5.78693985729216       -2.48356516190174       -0.39301028490554
H            5.58346149757411       -1.33105967723423        1.92777680522002
H            3.22859358939513       -1.77934572350779        2.54855704559818
H           -1.90856468272054        0.50934267375767       -0.82874103889899
H           -4.25210824266294        0.96817079514158       -1.43990992234864
