69
 energy: -117.531764481084 gnorm: 0.000061775566 xtb: 6.7.1 (edcfbbe)
C           -7.96238300021454       -3.98857904814234       -0.05997280795300
C           -6.65848605709795       -3.75602100736124        0.34806552071669
C           -6.13372867553552       -2.47710864837273        0.32876888061788
C           -6.90232838703129       -1.39945156386088       -0.11164072838713
C           -8.23468250963241       -1.64299621866381       -0.49138576286001
C           -8.75248499200443       -2.92805021901752       -0.47053910260157
O           -9.07584159682642       -0.63692967124417       -0.87666646886072
C           -8.58054087773953        0.63706478237486       -0.89359572160522
C           -9.44397206182502        1.64638650093890       -1.28821615514015
C           -8.99669457582178        2.95501323283532       -1.35768821929418
C           -7.67734874873067        3.24728889217538       -1.05003438902799
C           -6.80959552766263        2.24628551061215       -0.65459767424650
C           -7.24831896624587        0.92649941819121       -0.54715378592678
N           -6.40664459298323       -0.10354627620473       -0.14992311968333
C           -5.06416730305253        0.16185391757263        0.20664096616979
C           -4.77286706852473        0.96261150140472        1.32269446890531
C           -3.47494064299031        1.21630511950469        1.67252105843036
C           -2.40558898157516        0.68612668119747        0.91032311526229
C           -1.07244009524948        0.95479121892934        1.27430511221763
N           -0.65543300197205        1.68850164730465        2.29992602273085
N            0.65986857657849        1.68572585122112        2.30031156893291
C            1.07440229634495        0.95062283449756        1.27462162508308
C            2.40665208096838        0.67821344471227        0.91051674210664
C            2.71308683807032       -0.11644382312166       -0.22065253540328
C            4.01404609948407       -0.37777050790588       -0.55879019395734
C            5.06433673036993        0.14739395279680        0.20689397655616
N            6.40617588715678       -0.12037217643295       -0.14896620040341
C            7.25605120842123        0.91145058885959       -0.52392502745757
C            6.82517747463358        2.23524500022006       -0.61342808370452
C            7.70111520700193        3.23779066522215       -0.98612140845226
C            9.02120044515991        2.94348313877500       -1.28873676304725
C            9.46084030306529        1.63148085838848       -1.23764208559928
C            8.58905281630679        0.62050918033470       -0.86615694759344
O            9.07713587066534       -0.65625206825428       -0.86792337986022
C            8.22772023605238       -1.66407406174029       -0.50647633216065
C            8.73827783799581       -2.95222384679090       -0.50576733411435
C            7.94012967625282       -4.01542412606606       -0.11848710681920
C            6.63558391875277       -3.78256997808920        0.28733642264169
C            6.11809574757671       -2.50058057363997        0.28808095508532
C            6.89457905987966       -1.41959299850444       -0.12996996005083
C            4.77448182119968        0.94066220005454        1.32886644307474
C            3.47727462297958        1.19810683650127        1.67813916196299
O            0.00009222852251        0.44443321359873        0.56689043387810
C           -2.71364825292993       -0.11558050056083       -0.21533047448552
C           -4.01526289156916       -0.37440131459935       -0.55298235484193
H           -8.36964305383120       -4.98695599375113       -0.04784264803650
H           -6.04264039903041       -4.57333851457587        0.68971145419116
H           -5.12378153863620       -2.30097702984077        0.66229316797076
H           -9.77716159900221       -3.07128412204138       -0.77440788286994
H          -10.45846378307947        1.38169699155096       -1.54033624644228
H           -9.67334395346441        3.73729794171210       -1.66240756594284
H           -7.31504888213811        4.26094011468896       -1.12146019015943
H           -5.78065880323004        2.47850899161416       -0.43209788406041
H           -5.58607985404544        1.35934740123227        1.91325652633472
H           -3.23324654612307        1.81577578207108        2.53576457424346
H            1.90184439779524       -0.50652278677808       -0.81719473929500
H            4.24277182416764       -0.97446319192310       -1.43045374368589
H            5.79594793673908        2.46967804411380       -0.39463673741639
H            7.34468591121543        4.25439257639978       -1.04375594403473
H            9.70422252451018        3.72700166909679       -1.57553655769918
H           10.47565060704095        1.36533827460934       -1.48693326195199
H            9.76383156939031       -3.09569348290417       -0.80653398936687
H            8.34169358080454       -5.01616445181110       -0.12213737220608
H            6.01343388338656       -4.60225260149131        0.61144028325527
H            5.10765217854367       -2.32491240901915        0.62027000222074
H            5.58840756535158        1.32840273435917        1.92440031465347
H            3.23690092492874        1.79209871305956        2.54552806819976
H           -1.90318139478664       -0.51389084347970       -0.80746202898079
H           -4.24555727057635       -0.97798195708204       -1.41947670514834
