  69
       -117.48127626
 C         -9.0341600111       -2.9695454058       -1.2477963206
 C         -7.7131898433       -3.2598859203       -0.9516832910
 C         -6.8365902834       -2.2535071279       -0.5898916080
 C         -7.2689913498       -0.9308065810       -0.5043620446
 C         -8.6025151958       -0.6434526085       -0.8428651341
 C         -9.4742689480       -1.6572120583       -1.2030250625
 O         -9.0922530726        0.6326175128       -0.8548087778
 C         -8.2432034666        1.6427076642       -0.4991158251
 C         -8.7552415290        2.9292941085       -0.5018709691
 C         -7.9592799325        3.9953857043       -0.1170654083
 C         -6.6565279449        3.7655382144        0.2917773034
 C         -6.1369611630        2.4842182593        0.2948641632
 C         -6.9101621340        1.4021934498       -0.1241426994
 N         -6.4175318439        0.1041788350       -0.1410286020
 C         -5.0734616737       -0.1555430332        0.2010671938
 C         -4.7672595690       -0.9724388565        1.3021450991
 C         -3.4660673978       -1.2156130630        1.6418826863
 C         -2.4070172520       -0.6599929903        0.8819891166
 C         -1.0730898864       -0.9228268105        1.2371587350
 N         -0.6504160406       -1.6677508704        2.2576946651
 N          0.6535938272       -1.6626116544        2.2587647135
 C          1.0720643667       -0.9145972098        1.2387166603
 C          2.4047536451       -0.6440369433        0.8846948423
 C          2.7239778633        0.1731623272       -0.2273724056
 C          4.0286924950        0.4228616253       -0.5554806446
 C          5.0695894449       -0.1382631779        0.1985724390
 N          6.4141443232        0.1112122941       -0.1495343681
 C          6.9213327286        1.4034716776       -0.1326025040
 C          6.1569448231        2.4960497945        0.2751206986
 C          6.6923438218        3.7709556803        0.2741580927
 C          8.0022429208        3.9836567959       -0.1210356720
 C          8.7888841646        2.9069629418       -0.4951656543
 C          8.2609400776        1.6267941883       -0.4951538538
 O          9.1015373726        0.6059071308       -0.8401743798
 C          8.5948301720       -0.6635629289       -0.8364786044
 C          9.4558614325       -1.6882419390       -1.1920130352
 C          8.9981349671       -2.9943625712       -1.2443907329
 C          7.6706260415       -3.2673206246       -0.9608088964
 C          6.8049490839       -2.2501727058       -0.6032037526
 C          7.2547502860       -0.9337352286       -0.5098421713
 C          4.7656606845       -0.9530242574        1.3020178840
 C          3.4654133717       -1.1962583064        1.6447778920
 O         -0.0019252432       -0.4035701275        0.5420640455
 C         -2.7286612546        0.1561122746       -0.2301847773
 C         -4.0339419776        0.4052792929       -0.5554252911
 H         -9.7182421720       -3.7551197895       -1.5259599411
 H         -7.3552218024       -4.2760847584       -1.0060756824
 H         -5.8054664763       -2.4852181833       -0.3789535346
 H        -10.4901155128       -1.3933984554       -1.4503760769
 H         -9.7809432501        3.0702213144       -0.8024452879
 H         -8.3625400452        4.9953166291       -0.1235629365
 H         -6.0368938637        4.5863142075        0.6179878664
 H         -5.1282051284        2.3105719495        0.6326006859
 H         -5.5747575876       -1.3841374846        1.8902534611
 H         -3.2113962635       -1.8236742776        2.4941203134
 H          1.9204396213        0.5863929898       -0.8166566025
 H          4.2713208692        1.0343094669       -1.4130294976
 H          5.1425113937        2.3357744717        0.6024169415
 H          6.0791344689        4.6004670234        0.5898311230
 H          8.4179529471        4.9786187365       -0.1260650207
 H          9.8195069067        3.0344366372       -0.7850275697
 H         10.4773288927       -1.4378968641       -1.4295354502
 H          9.6737971080       -3.7886278669       -1.5188427987
 H          7.2991170212       -4.2784035393       -1.0211767084
 H          5.7690925149       -2.4684548822       -0.4008242132
 H          5.5747006715       -1.3644750668        1.8881361005
 H          3.2126125476       -1.8038713173        2.4978688721
 H         -1.9264308830        0.5701995369       -0.8206226539
 H         -4.2787406158        1.0183166330       -1.4112236667
