69
 energy: -117.602764046995 gnorm: 0.000059051163 xtb: 6.7.1 (edcfbbe)
C           -8.03620259034707       -3.70813839858617       -1.27143593213358
C           -6.74850063909936       -3.66424439376038       -0.77583978155023
C           -6.18739189160130       -2.45749524474767       -0.38581829882450
C           -6.90128370496284       -1.27000586227224       -0.49497196361809
C           -8.22044308798405       -1.33194990239254       -0.96381817842074
C           -8.77509802923179       -2.53704114731926       -1.35462455644884
O           -9.02965861730830       -0.22306841838284       -1.04157282584198
C           -8.49171096702096        0.98106558383134       -0.65194040769337
C           -9.31151862843106        2.09065381050543       -0.74929772835349
C           -8.83228007588495        3.34761621076321       -0.41087884874737
C           -7.52306190453867        3.48534995331730        0.00470243473111
C           -6.69840100905788        2.37506580311557        0.10594528451615
C           -7.17289551952597        1.10379105547614       -0.19459882272280
N           -6.36704004725885       -0.03693191437449       -0.10662932053002
C           -5.03890106325692        0.05983380154420        0.35232255401381
C           -4.77412139893415        0.50832020913540        1.64742919576799
C           -3.47479133013031        0.61939481286197        2.09257988418110
C           -2.41484900098785        0.28223685934047        1.24755515973216
C           -1.05840155756064        0.43026694714188        1.71401465957316
N           -0.67235983603934        0.86761499868361        2.87933558781751
N            0.66820740104764        0.87160626516074        2.88087948364100
C            1.05954357121505        0.43596106866177        1.71682439914164
C            2.41805215357787        0.29023631814822        1.25510597443346
C            2.68812502822202       -0.22104333096646       -0.01535589464851
C            3.99115859935519       -0.33420085314424       -0.45238933509293
C            5.04441953127996        0.06254651335711        0.37042585387286
N            6.37370113872661       -0.04069298879947       -0.08576431439967
C            7.15880891564065        1.10435625095505       -0.25840695749783
C            6.67509362379197        2.38337706541946       -0.01043404258326
C            7.47872948678010        3.49754502778518       -0.20022494792936
C            8.77524637391379        3.35519440070751       -0.65221384145110
C            9.26370834495668        2.08787615478388       -0.93460190579352
C            8.46547878895367        0.97417372973600       -0.74784411497219
O            9.01224791141283       -0.24310206533962       -1.08149905900867
C            8.22822217766354       -1.35868448591957       -0.90416835892636
C            8.79475418315968       -2.57835546618818       -1.22637703964181
C            8.07925698938873       -3.75286653574923       -1.04408639563065
C            6.80306538728053       -3.69668323324257       -0.52072432631908
C            6.23016423133869       -2.47553552127931       -0.19856749067300
C            6.92058154820426       -1.28732463418288       -0.40574462956130
C            4.77407968437980        0.56591902897606        1.64354104760602
C            3.47300437841976        0.67837395659297        2.08409445359065
O            0.00241190672634        0.13323710104468        0.92393990198306
C           -2.67893618653842       -0.17627234657582       -0.04413164709779
C           -3.98038424815330       -0.28517690970837       -0.48712630272494
H           -8.47639810145812       -4.64281981636884       -1.58115855167870
H           -6.16779105080963       -4.56921320611210       -0.68364544274867
H           -5.18703459032837       -2.44181427415808        0.01680636223696
H           -9.79137409119011       -2.53692381642260       -1.71640792771648
H          -10.32214641644706        1.94881713248995       -1.09889982259711
H           -9.48019785658085        4.20659197834450       -0.48674421637863
H           -7.12717489401993        4.45864944570178        0.25086243388694
H           -5.67314836770002        2.50209652157768        0.41515807808417
H           -5.59655214753952        0.76349123245330        2.29862374342192
H           -3.25410000791696        0.96123554072677        3.09111782537904
H            1.87240466392903       -0.51746160023051       -0.65729318469634
H            4.20323070880191       -0.72153294243138       -1.43776643459922
H            5.65884239873387        2.51310531069079        0.32624160656879
H            7.07636563399522        4.47747395227312        0.00594480102539
H            9.40637449255453        4.21757354864497       -0.79830545412599
H           10.26487771080168        1.94086625914174       -1.30842008955744
H            9.80124405608358       -2.58702988983139       -1.61443836863539
H            8.52866305994244       -4.69914873741695       -1.30085012698264
H            6.24121558646336       -4.60274948492582       -0.35318114590708
H            5.23875730330699       -2.44747144884139        0.22528918252232
H            5.59281035387093        0.86160976165316        2.28206589217535
H            3.24747494188218        1.06134792275673        3.06647785959301
H           -1.85960611599214       -0.43230585409695       -0.69873735587722
H           -4.18656329198376       -0.62718880973165       -1.49034826914198
