  84
       -126.53759172
 C          9.7140002887       -0.7823141496        1.3797831626
 C          8.9830756874       -0.2845033976        0.1188324380
 C          9.9984794787        0.0330829518       -0.9946090250
 C          8.0553769847       -1.3815527290       -0.3625694185
 C          8.5814218424       -2.6147018837       -0.7220833217
 C          7.7797261688       -3.6587128678       -1.1445165025
 C          6.4075824519       -3.4813624675       -1.2013198011
 C          5.8576805889       -2.2674069955       -0.8535482923
 C          6.6684325639       -1.2009863460       -0.4457089567
 N          6.0896195274        0.0122027074       -0.1227999334
 C          4.6765781790        0.1442977701       -0.2152443405
 C          4.0630605815        0.3247807658       -1.4526291591
 C          2.6940225792        0.4214839379       -1.5314726948
 C          1.8971883190        0.3585783330       -0.3763703300
 C          0.4418488892        0.4268231893       -0.5903843456
 O          0.0019901834        0.4514418459       -1.7544522282
 C         -0.4446337571        0.4675912044        0.5873365687
 O         -0.0041039551        0.5758738589        1.7463063398
 C         -1.8996410394        0.3800526604        0.3770926619
 C         -2.5258831452        0.1324521191       -0.8440605318
 C         -3.8978766289        0.0158392335       -0.9217494090
 C         -4.6782102579        0.1540493602        0.2217871546
 N         -6.0913330805        0.0173084656        0.1301900069
 C         -6.8419410248        1.0847853701       -0.3240792155
 C         -6.2057215677        2.2942049227       -0.6290555436
 C         -6.9254346818        3.3744081502       -1.0894732414
 C         -8.2969798283        3.2706375308       -1.2513695461
 C         -8.9299400317        2.0821534080       -0.9378136420
 C         -8.2311396852        0.9776363986       -0.4705863555
 C         -8.9811657976       -0.2938574839       -0.1287665047
 C         -9.6954532881       -0.8016046547       -1.3953777385
 C        -10.0099783023        0.0230453523        0.9723673948
 C         -8.0523178539       -1.3826007774        0.3691893295
 C         -8.5745942000       -2.6156353561        0.7344296091
 C         -7.7713114366       -3.6493034298        1.1790712439
 C         -6.4016005478       -3.4607215606        1.2567156239
 C         -5.8551342276       -2.2473206427        0.9017539833
 C         -6.6673528639       -1.1933290160        0.4654860458
 C         -4.0687389595        0.4120324419        1.4470795186
 C         -2.6997843188        0.5155347492        1.5236122682
 C          2.5267720624        0.1899122941        0.8565272737
 C          3.8992563861        0.0784698529        0.9369668214
 C          6.8397554275        1.0877776703        0.3143911974
 C          6.2034676888        2.3018256681        0.6002916943
 C          6.9216929881        3.3873382243        1.0504522139
 C          8.2923001503        3.2849470890        1.2201819306
 C          8.9265268005        2.0942796974        0.9181134835
 C          8.2293292410        0.9849343735        0.4598480792
 H          8.9912255495       -1.0077525184        2.1615513180
 H         10.2818655484       -1.6837518766        1.1676840779
 H         10.4000671003       -0.0277698439        1.7537864297
 H         10.5746688273       -0.8494036392       -1.2573551728
 H         10.6897927092        0.8091266562       -0.6787866538
 H          9.4759813443        0.3799055462       -1.8840176491
 H          9.6478431036       -2.7727095762       -0.6696709496
 H          8.2220315015       -4.6041680802       -1.4184124959
 H          5.7639142729       -4.2886136904       -1.5159347392
 H          4.7878493575       -2.1369271587       -0.8930154940
 H          4.6715984907        0.3801183895       -2.3434555028
 H          2.1980818716        0.5500878850       -2.4820050051
 H         -1.9273934433        0.0317302869       -1.7367292704
 H         -4.3776653452       -0.1835951482       -1.8688356858
 H         -5.1381545481        2.3790650999       -0.4998964925
 H         -6.4152616038        4.2968278428       -1.3216418781
 H         -8.8706023718        4.1091356299       -1.6152719489
 H        -10.0002108293        2.0194386501       -1.0630614110
 H         -8.9636772020       -1.0219904436       -2.1701940347
 H        -10.2566882733       -1.7078044328       -1.1862670861
 H        -10.3850054161       -0.0541914624       -1.7772336652
 H         -9.4995208981        0.3819037703        1.8640427983
 H        -10.5803207724       -0.8627883987        1.2366473862
 H        -10.7058492515        0.7896155519        0.6437136143
 H         -9.6391965389       -2.7816154323        0.6700661564
 H         -8.2108015955       -4.5950024233        1.4567093364
 H         -5.7573943142       -4.2589728110        1.5926912056
 H         -4.7871758414       -2.1069597625        0.9570466530
 H         -4.6800015470        0.5223252044        2.3307954947
 H         -2.2068340547        0.7056359248        2.4653328227
 H          1.9309567372        0.1430248064        1.7555176509
 H          4.3817591705       -0.0600542506        1.8935387120
 H          5.1367103220        2.3863300954        0.4654762545
 H          6.4107738881        4.3123628601        1.2700377469
 H          8.8644279881        4.1267600215        1.5786758625
 H          9.9968980301        2.0341628417        1.0435326250
