97
 energy: -161.578422012855 gnorm: 0.000035747219 xtb: 6.7.1 (edcfbbe)
F           -3.09984711023653       -5.52418761750919       -1.94599014785052
C           -4.30863000880261       -5.27843619485272       -1.40379908615999
F           -5.20573543633329       -5.71568293843158       -2.32586394393800
F           -4.42865698318034       -6.12570009341818       -0.36496883919582
C           -4.51110879381719       -3.84756096070193       -1.03366158126338
C           -3.93253939139496       -2.84507513048523       -1.81459524921565
C           -4.13548349765302       -1.52291624629262       -1.49301831192657
C           -4.93163379449873       -1.17947436452196       -0.39078265398365
N           -5.12097387022650        0.16054787061342       -0.06006879626050
C           -4.09150094503823        1.10732930283710        0.14925771818671
C           -2.70999604710095        0.87362164985344        0.22575592433982
C           -2.09116670381304       -0.39512676082409        0.40846476034968
C           -0.73422757080698       -0.51457489361631        0.46077387084254
C            0.12732852858795        0.60381975779550        0.35008769414505
C            1.55902729839929        0.45472931973983        0.37539901661887
C            2.40262478071084        1.49885780783711        0.80559518539135
C            3.76841975322285        1.35451698371547        0.83192083783800
C            4.35585787935876        0.15628369210467        0.42121574911137
N            5.75129234967958        0.00588247116661        0.42262943827909
C            6.47587627557536       -1.02473623129457        0.97823263528166
C            5.92931120422069       -2.11660765300332        1.76415622590617
C            4.81701858516588       -1.96205830411335        2.59203672177563
C            4.34707501845994       -3.03286275644911        3.32931458808838
C            4.98063559300274       -4.26334267753103        3.26126578620614
C            6.10280487395759       -4.41713976702733        2.46143103733500
C            6.57780648021971       -3.35269950835996        1.72089372456895
N            7.75757951109254       -0.87370610815202        0.74789365933305
C            7.90619100913214        0.27648139473687        0.03722962809353
C            9.21866500624774        0.69640903159500       -0.42219506551658
C            9.38902345851817        1.49035640683464       -1.55717461692447
C           10.65674196413753        1.86063143674935       -1.96390675703469
C           11.77147294810136        1.44201474232941       -1.25419575666616
C           11.61264601813975        0.63617371634138       -0.13715296004626
C           10.34859795244955        0.26274249024301        0.27469330272583
C            6.65549047684969        0.85492188366642       -0.16668475660486
C            6.27013780512585        2.08485627252926       -0.84637786822930
C            6.92009415337716        3.28062344539558       -0.53877356303420
C            6.55754089785184        4.45412408004917       -1.17205932505631
C            5.54398219954847        4.45201456747482       -2.11767598548434
C            4.89755412562910        3.26764747413816       -2.43233962325942
C            5.25485775278829        2.09007160279255       -1.80215029839708
C            3.54141296166838       -0.89246720705747       -0.01411399238275
C            2.17653870779835       -0.74587534557988       -0.03136037559431
C           -0.49143767710418        1.87482426959108        0.23502724300763
C           -1.84401373327974        2.00740081088102        0.17981776764128
N           -4.61417316635537        2.32732073063188        0.37628116127129
C           -5.93176566553484        2.18700387656937        0.38243837425956
C           -6.90853136062399        3.18479298989804        0.67200556703970
C           -6.52445200875086        4.47559418790401        1.04584551021104
C           -7.47422255473657        5.41610853217054        1.37869371329445
C           -8.81802329410799        5.06246612942316        1.35037073626274
C           -9.20772747425799        3.79210153953338        0.97328994115458
C           -8.27191829770985        2.81645330118314        0.60842631206097
C           -8.64979554496642        1.48707610488633        0.15019158815687
C           -9.98600902332172        1.14540693290991       -0.06337321949957
C          -10.36234950348210       -0.08896861228854       -0.55383075058377
C           -9.39072202436325       -1.03307071492362       -0.88030118676993
C           -8.06610690492350       -0.74607392487040       -0.67721882051104
C           -7.65529627384171        0.49460151004225       -0.13867377271119
C           -6.30952081496943        0.84322805704676        0.08229567219899
C           -5.51505274761283       -2.19265201349724        0.38337242904724
C           -5.30648653643560       -3.51510297789438        0.06503589938242
H           -3.32783741040211       -3.11237911273841       -2.66731170178703
H           -3.68857994915974       -0.74180626566309       -2.08795187104801
H           -2.69949299003771       -1.27015690110244        0.56871546121025
H           -0.30849213007894       -1.48993865365512        0.64266073176612
H            1.97167525298449        2.42113191841043        1.16128605286612
H            4.39519615298635        2.16051260262442        1.18421069168734
H            4.33056077655238       -1.00178806865962        2.67667320639758
H            3.48393554332051       -2.90275065722251        3.96559071325148
H            4.60701560226615       -5.09673991529573        3.83750664870112
H            6.60723593531517       -5.37104243252002        2.41454403721689
H            7.45098127217672       -3.45534905034514        1.09494474854622
H            8.52833354464001        1.80292064910097       -2.12905697159493
H           10.77627424744102        2.47542887529649       -2.84442271797303
H           12.75992763670079        1.73631358062661       -1.57547371606109
H           12.47882050996456        0.29989240435389        0.41430459542133
H           10.20921012356245       -0.36584175933366        1.14102087173426
H            7.70684865779295        3.27878659755365        0.20181491909283
H            7.06563626201368        5.37445391058483       -0.92420344309544
H            5.26053617841008        5.37061634491906       -2.60952128525870
H            4.11110481624386        3.25887659095720       -3.17270088761629
H            4.75592417743173        1.16724480617162       -2.06103705431221
H            3.99760027131211       -1.81321809351725       -0.34823072760371
H            1.57157175860999       -1.55659588556337       -0.40569345088459
H            0.12530839671946        2.75571930947480        0.14497305205814
H           -2.30425365061107        2.97642422467206        0.06965313371205
H           -5.46963700001200        4.70133611519264        1.07253197765340
H           -7.17952842568156        6.41365609264902        1.66763908785861
H           -9.57002114135404        5.78781113080200        1.62505038714064
H          -10.26152457853457        3.56494488219488        0.97278496312930
H          -10.76217251905726        1.86444546149807        0.14205289528023
H          -11.40756586331627       -0.31353116601523       -0.70346550868665
H           -9.67827131743886       -1.98623687710574       -1.29846773794693
H           -7.32091583614882       -1.47039102945639       -0.96025129134521
H           -6.11938189814769       -1.92682201936305        1.23719780413225
H           -5.74323938500370       -4.29623139653304        0.66779520905316
