97
 energy: -161.662621570176 gnorm: 0.000037080077 xtb: 6.7.1 (edcfbbe)
F           -2.88508823479152       -5.23034959119493       -2.71449145293334
C           -4.08697590246067       -5.17802630840517       -2.11455418261434
F           -4.97681165298726       -5.60048011949905       -3.04191202247606
F           -4.07393244631787       -6.12850310446525       -1.16455422598283
C           -4.42192076083623       -3.81552801647893       -1.58407120046239
C           -3.95014532682368       -2.68804281092976       -2.24575910088841
C           -4.28046566078078       -1.43175706913026       -1.77492996470495
C           -5.08494969123206       -1.30194145442591       -0.64584102515855
N           -5.38466995978779       -0.02261473788794       -0.14945827541733
C           -4.44909752262979        0.88917897502722        0.30323440688529
C           -3.01280188734633        0.66296256798281        0.33220381569223
C           -2.44626145896252       -0.57252446009196        0.64303973267001
C           -1.07463742611159       -0.72638859317272        0.66089366682901
C           -0.22902406211419        0.34685717238090        0.38602920096065
C            1.23034792015151        0.17510681001270        0.40345616349627
C            2.05390295979475        1.14326341730349        0.97552018703467
C            3.42514308795154        0.98377706356484        0.99729609722848
C            3.99953004828745       -0.14939195952400        0.43146768732780
N            5.39784613163378       -0.31069662019523        0.42911155026530
C            6.11357649047789       -1.39034860206838        0.87801358033518
C            5.55413111620046       -2.55740869636255        1.54209475600263
C            4.44762232850410       -2.47864884816124        2.38636919853061
C            3.96298413313157       -3.61716445339117        3.00390139908159
C            4.57711097430854       -4.84165870249559        2.79799251051330
C            5.69294455542840       -4.92296773775790        1.97953783995433
C            6.18069965938515       -3.79027416241560        1.35707469691557
N            7.39691031729149       -1.22446477805655        0.66841774771637
C            7.55050356402840       -0.01009396146723        0.06960406023900
C            8.86879171892893        0.45488517384038       -0.33820523290794
C            9.04386169637946        1.30435081728823       -1.42950470133639
C           10.31152865022251        1.71623742513146       -1.79618558825717
C           11.42099675148452        1.28385176308375       -1.08751806966694
C           11.25701879447220        0.42530219902302       -0.01208315303685
C            9.99211697966412        0.01145129951061        0.35918894834655
C            6.31014732182391        0.58711996364174       -0.08354256058737
C            5.92901099441496        1.88253652736922       -0.63275128811580
C            6.59823600860272        3.03435768128441       -0.21859583455248
C            6.24125762451837        4.26974972722475       -0.72431714045082
C            5.21028940598197        4.37552975490829       -1.64483803756132
C            4.54423229475535        3.23631123660341       -2.06516033054614
C            4.89969411767075        1.99670839471926       -1.56576385567619
C            3.18958378648135       -1.12050030928200       -0.14885259689986
C            1.81880658495693       -0.95970386026097       -0.15353586828747
C           -0.79876278455406        1.58852653459505        0.10487282018878
C           -2.16825714570043        1.74512690388254        0.07816578731539
N           -5.00747877758568        1.99229866208187        0.72956525257716
C           -6.34765524367401        1.82689782427588        0.56696346470164
C           -7.38529333191555        2.73503152566805        0.91978432042537
C           -7.09984481499465        3.96666188900714        1.51960181528070
C           -8.11741241903346        4.81304101925648        1.88398654226947
C           -9.43857734845058        4.43291541685578        1.65397023043805
C           -9.73033539228817        3.22728437430113        1.05931089001108
C           -8.71800634379469        2.33840795234723        0.66422866737636
C           -8.99112448758263        1.07437606821001        0.00123597150805
C          -10.29703801894728        0.69182757432742       -0.33918145088604
C          -10.56454132776399       -0.47918423608038       -1.00829316905050
C           -9.52235327022443       -1.31974472928713       -1.38715538642784
C           -8.22957733601515       -0.98659864502465       -1.06498627392185
C           -7.93718562501091        0.18742427152353       -0.35505136003407
C           -6.61696645322336        0.57991099772488        0.00774016586886
C           -5.55708244606864       -2.43718028001019        0.01211689200201
C           -5.23030077131030       -3.69351260376780       -0.45901210837964
H           -3.32736293514193       -2.79506637666228       -3.12011802628124
H           -3.91764912325570       -0.54912749572051       -2.27796334690243
H           -3.07471969216190       -1.41180706196036        0.89886186436658
H           -0.65205841702221       -1.68599894272932        0.91924112217410
H            1.61518208681481        2.01848163182401        1.43002034992093
H            4.05601200059827        1.73147995673290        1.45455127961634
H            3.97472716119540       -1.52644916757358        2.57634423159629
H            3.10383184711722       -3.54507517424572        3.65497321274338
H            4.19291339659786       -5.72826870587493        3.28048334712656
H            6.18306944848093       -5.87320863563894        1.82539312616588
H            7.05041590141815       -3.83634241175286        0.71936883873821
H            8.18574422152622        1.63169734314976       -1.99806107129782
H           10.43469877465368        2.37449635245563       -2.64452836195296
H           12.40977365148431        1.60886743482230       -1.37745095004078
H           12.11949758010750        0.07812321581108        0.53895514854687
H            9.85053434626483       -0.66173935286241        1.19129183219099
H            7.39856528090772        2.94900693369472        0.50243022503578
H            6.76660098503853        5.15445182265318       -0.39518214775150
H            4.93025486331172        5.34248690434272       -2.03587065570041
H            3.74507291362293        3.31092522226908       -2.78824223695305
H            4.38652148671309        1.11041131979193       -1.91058618995702
H            3.64161859627535       -1.99498467589217       -0.59373426446717
H            1.19873435517371       -1.71126936756393       -0.61826195446389
H           -0.16007645782667        2.43063984154600       -0.11580066117290
H           -2.60988427863632        2.70452349939816       -0.14306827322296
H           -6.06405909433908        4.21827885007325        1.68923335561591
H           -7.90110750003684        5.76340739984696        2.34940949008524
H          -10.24351246734866        5.09195565498205        1.94606095796300
H          -10.76729803397029        2.97537641080315        0.90495107922101
H          -11.12578984418757        1.33149863434670       -0.08329393295577
H          -11.58383204912344       -0.73888450969570       -1.25331230775499
H           -9.72638997658368       -2.22696189608230       -1.93642860021826
H           -7.42525753817492       -1.63112762273117       -1.38086795018969
H           -6.17883644807976       -2.32789276865178        0.88771401625390
H           -5.59018572700723       -4.57546979555474        0.04759684513444
