97
 energy: -161.662564404604 gnorm: 0.000072478993 xtb: 6.7.1 (edcfbbe)
F           -2.59290408369997       -5.15932594085399       -2.00756574913172
C           -3.81530821713230       -5.03663189741677       -1.46083826130337
F           -4.67737179639071       -5.52568358526743       -2.38164956282698
F           -3.85428748719132       -5.89985051130756       -0.43194702546016
C           -4.14362029889647       -3.62734568797273       -1.06599924740376
C           -3.65577178564382       -2.57328338440360       -1.82969321916387
C           -3.97678698850500       -1.27432274851309       -1.48558737326590
C           -4.78738627086051       -1.02876736079048       -0.38023688931105
N           -5.07690706562679        0.29418660743556       -0.00897551597725
C           -4.13543809133151        1.23861692882097        0.35664264983415
C           -2.69934345723318        1.00985478191056        0.38728952182610
C           -2.13351184317659       -0.19329684168266        0.80713356383984
C           -0.76278217732387       -0.35491279442350        0.81324005811833
C            0.08358665820543        0.67940389484100        0.41723731664165
C            1.54155649139277        0.49558814607592        0.41914444309560
C            2.38766797672604        1.50970509237883        0.86476772288913
C            3.75741101018382        1.33645887227351        0.87506292768224
C            4.30774022450710        0.14094821779099        0.42554156129070
N            5.70369192691100       -0.03914954354877        0.41512010189801
C            6.41642745192232       -1.07483596641149        0.96218152813493
C            5.85688072820023       -2.15832734369361        1.75553010186514
C            4.76761363794371       -1.97603446532544        2.60623470336272
C            4.28098080612257       -3.03643980377839        3.34850262055260
C            4.87633653140149       -4.28426711294447        3.26212945806370
C            5.97560852995814       -4.46652905899357        2.43759042691250
C            6.46499894132153       -3.41241787945837        1.69069442961312
N            7.69682439255654       -0.94766902923981        0.71285870363853
C            7.85238134498221        0.19597629328951       -0.01235377731502
C            9.16896348231823        0.60198677229377       -0.48289370666307
C            9.33772544210049        1.37047878859278       -1.63366070740829
C           10.60485578183448        1.73480453034211       -2.04942037280668
C           11.72051034476729        1.33232159542892       -1.33307227756415
C           11.56283296295122        0.55047421019540       -0.19973115291986
C           10.29860558299167        0.18637093974735        0.22192426126519
C            6.61525546968911        0.78845472074830       -0.20519251190513
C            6.22896666049633        2.01864558516862       -0.88601508120788
C            6.89087657616932        3.21134592318220       -0.59510330220725
C            6.52593196938618        4.38451795837534       -1.22767355316868
C            5.49516240510075        4.38604235977728       -2.15450296612453
C            4.83617972696826        3.20491501666133       -2.45254065840646
C            5.19861133451650        2.02723291624376       -1.82465103840835
C            3.47524525321742       -0.87628980444020       -0.03035936585651
C            2.10652395887195       -0.69974168320806       -0.02437438597701
C           -0.48489171461580        1.89284225985921        0.03012490240328
C           -1.85389984987637        2.05652105271519        0.01551247868644
N           -4.68766173064429        2.37516306712151        0.69323319808624
C           -6.03003454779764        2.19974772361869        0.55884741311744
C           -7.06411195381399        3.13342254443771        0.85057894239308
C           -6.77309515074833        4.40815517618873        1.34902702422312
C           -7.78737906650480        5.27881579957788        1.66181827896210
C           -9.11087284091004        4.87961669509066        1.48341459168438
C           -9.40831031841067        3.63142940089561        0.98760523026668
C           -8.39961121166078        2.71728624681262        0.64456756231833
C           -8.67944754629551        1.40799997311683        0.07934569783716
C           -9.98743484307669        1.00574416304148       -0.22876887350083
C          -10.25972172226468       -0.20949534219803       -0.81164480197365
C           -9.22090420260642       -1.07797170831515       -1.13255710986004
C           -7.92622842674510       -0.72601884889784       -0.83928739307653
C           -7.62920281521292        0.49482960731984       -0.21570605666830
C           -6.30639607846503        0.91102428864240        0.10872692824815
C           -5.27580054386923       -2.09070820552706        0.38022922922360
C           -4.95898148259109       -3.38980812541839        0.03513144634525
H           -3.02789949501832       -2.77042169687042       -2.68454775863079
H           -3.60171440861239       -0.44768963557352       -2.06851279743477
H           -2.76133486162906       -0.99924958566884        1.15527515771946
H           -0.34083900373970       -1.28790716788094        1.15615548002860
H            1.96830774715044        2.43424460612822        1.23128024406201
H            4.40534575464206        2.12183608738644        1.23492787858691
H            4.31004936057557       -1.00259337656940        2.70349341374719
H            3.43538266927122       -2.88413516389036        4.00340671231734
H            4.49098887613279       -5.10934500522746        3.84285366789571
H            6.45149672542591       -5.43434862570552        2.37593707321883
H            7.32228126199777       -3.53738200532825        1.04681747639716
H            8.47544576365071        1.67333230239854       -2.20919429578095
H           10.72246973384207        2.33274445843059       -2.94207011828861
H           12.70859620242150        1.62103024798655       -1.66121756414389
H           12.42974735602033        0.22579932617832        0.35805853816094
H           10.16141559858965       -0.42463889828763        1.10137428544855
H            7.69176406580289        3.20671473716539        0.13040437945669
H            7.04517053541982        5.30236589496873       -0.99331376261672
H            5.20951000518171        5.30474458264114       -2.64515146933767
H            4.03660794369994        3.19816792367093       -3.17900938723705
H            4.69053610469147        1.10618672805858       -2.07266125123557
H            3.90836689674800       -1.79949998166007       -0.38681403665310
H            1.46938833950789       -1.48924419012520       -0.39314724362894
H            0.15326033032524        2.70530874805710       -0.28356481630744
H           -2.29432083614333        2.99350386346539       -0.28874866400667
H           -5.73564181907477        4.67343752734794        1.48412963051629
H           -7.56666583129277        6.26283284837497        2.04852916396111
H           -9.91310401491803        5.55748004453188        1.73735841119458
H          -10.44678363021574        3.36585869745474        0.87068044461512
H          -10.81359157753826        1.66522927078877       -0.01875116101376
H          -11.28038216841568       -0.48313343061491       -1.03497771649440
H           -9.42887976095185       -2.02132591664981       -1.61546216088761
H           -7.12410743730975       -1.39270094250484       -1.11202699888929
H           -5.90255937974341       -1.89123935072450        1.23611031729026
H           -5.33172753313628       -4.21498764249227        0.62173566741790
