97
 energy: -161.578420006243 gnorm: 0.000045716294 xtb: 6.7.1 (edcfbbe)
F           -3.16831625684930       -5.46230274662691       -1.89149626421540
C           -4.36744874695452       -5.19870693649592       -1.33659078647024
F           -5.28068194449552       -5.62536794739601       -2.24773460303062
F           -4.48772735131540       -6.04213702783218       -0.29460554722828
C           -4.54616886420980       -3.76446923316845       -0.96723327048066
C           -3.95707491972066       -2.77149450765437       -1.75239978563435
C           -4.13878425937319       -1.44614473465500       -1.43127856721907
C           -4.92412958805886       -1.08986537623692       -0.32537857999407
N           -5.09198401165786        0.25320726575873        0.00463406699353
C           -4.04737348432982        1.18454725320035        0.20833385486142
C           -2.66942066385987        0.92917026224893        0.27845892095169
C           -2.07031292866456       -0.34943594793056        0.45866583512316
C           -0.71519723582067       -0.49140624659640        0.49970984396059
C            0.16356780435714        0.61254878560400        0.38069610933865
C            1.59280733669121        0.43931830112971        0.39045599968071
C            2.45837166613502        1.46708196726574        0.81602264662455
C            3.82186633609531        1.30043922113406        0.82395095575347
C            4.38454448476626        0.09562219649088        0.39802054840538
N            5.77757755421411       -0.07472561502431        0.37667528605789
C            6.49769132215579       -1.11766075484355        0.91467825639594
C            5.94920082944038       -2.20971151991823        1.69905970084294
C            4.85128839404038       -2.04898475082477        2.54472059211859
C            4.37837463761554       -3.12084329132895        3.27858680931159
C            4.99468536924383       -4.35869927433242        3.18920956032335
C            6.10289817036528       -4.51907009701202        2.37139910137551
C            6.58079427594536       -3.45358613158348        1.63422336878952
N            7.77772292416828       -0.98019304667014        0.66682798806188
C            7.92969816186485        0.17287145791517       -0.03839756617332
C            9.24033334583735        0.58319136592356       -0.51168858989584
C            9.40393879534301        1.37872653469573       -1.64652374985514
C           10.66969602217314        1.74228112309587       -2.06525387225305
C           11.78893913482979        1.31535569313581       -1.36768600914242
C           11.63659608704351        0.50732708937524       -0.25133266957228
C           10.37452550308789        0.14032897284919        0.17227937041521
C            6.68320167199930        0.76704240975429       -0.22087102096597
C            6.30195626057176        2.00397927561026       -0.89006581423596
C            6.96925973020428        3.19146907368918       -0.58784081532888
C            6.60975734094391        4.37117306950394       -1.21132100182530
C            5.58205908353360        4.38355358908844       -2.14146031723858
C            4.91871380346953        3.20727390901419       -2.45120618746765
C            5.27292060844058        2.02359778315647       -1.83085146046217
C            3.54775107939207       -0.93776367403469       -0.03139975081454
C            2.18523173823614       -0.76927119356641       -0.02940715221327
C           -0.43474901759563        1.89372417508004        0.27119300718630
C           -1.78536411733112        2.04864502542860        0.22610483932853
N           -4.55051108547595        2.41282595291935        0.43488426723045
C           -5.87008298863805        2.29272520165303        0.44561601680108
C           -6.83064687178115        3.30611618659756        0.73525251721601
C           -6.42583685817585        4.59181166610118        1.10478464445535
C           -7.36018881848012        5.54777741683252        1.43728929873709
C           -8.70935137272063        5.21487268646055        1.41303044136616
C           -9.11950586343668        3.94969708206834        1.04019582132313
C           -8.19973508828525        2.95877881804229        0.67568993518555
C           -8.59928262226234        1.63428406651582        0.22173499390580
C           -9.94109303951658        1.31306673587412        0.01159499888029
C          -10.33776982564210        0.08325463749476       -0.47429525922011
C           -9.38174976936208       -0.87713408513351       -0.79933763799201
C           -8.05238474466317       -0.61028683367958       -0.59992431079030
C           -7.62098793267098        0.62564991331292       -0.06653162568465
C           -6.26942717692410        0.95421580363387        0.14957568241323
C           -5.51820937034241       -2.09343807244893        0.45313485348805
C           -5.33065418119473       -3.41914566587166        0.13536628841454
H           -3.36098271398323       -3.04855462955357       -2.60805398120035
H           -3.68371462567599       -0.67230682757251       -2.02952588040832
H           -2.69180411633735       -1.21389184790686        0.62551866969000
H           -0.30381459451459       -1.47336613390743        0.67918599441877
H            2.04672851128626        2.39404556649102        1.18229669695294
H            4.46604725885132        2.09423004314943        1.17258466947252
H            4.37857019916440       -1.08340928721939        2.64556638280687
H            3.52656206446083       -2.98585806435664        3.92895485600790
H            4.61866319099200       -5.19288977050248        3.76274063523933
H            6.59395847731682       -5.47895509353189        2.30755864233220
H            7.44334846933656       -3.56129689964329        0.99454079098779
H            8.53927691397485        1.69796586426020       -2.20868187978235
H           10.78410849758940        2.35844624099307       -2.94549446100620
H           12.77582153943120        1.60497249486009       -1.69789571247083
H           12.50626417586431        0.16439875530468        0.29043191157905
H           10.24009098606873       -0.48968653866683        1.03837116464628
H            7.76700867622031        3.17832141841101        0.14078177866286
H            7.13122097212936        5.28513206935039       -0.96771100006963
H            5.30087782271986        5.30705311963645       -2.62536907613995
H            4.12124175322022        3.20969603875026       -3.17973094647963
H            4.76056468736646        1.10704953204471       -2.08580546550157
H            3.98460732878992       -1.86361074648999       -0.37701962487633
H            1.56217217225451       -1.56817361127523       -0.39951313759887
H            0.19603277956184        2.76416375293777        0.17647511107170
H           -2.23041360893008        3.02506374093848        0.11892578937032
H           -5.36761196999200        4.80133453625216        1.12840739945863
H           -7.04941273556798        6.54138708115839        1.72290743734299
H           -9.44935783202762        5.95253725911133        1.68749300281889
H          -10.17667931697384        3.73878509599929        1.04282128913024
H          -10.70540725928747        2.04495382044258        0.21608999513152
H          -11.38666656521784       -0.12525267045710       -0.62137725053933
H           -9.68511328403604       -1.82709170705730       -1.21360643137052
H           -7.31934604134534       -1.34730881628932       -0.88186483201932
H           -6.11397651847465       -1.81774649187455        1.30984424274617
H           -5.77553833540136       -4.19313065514939        0.74140337284766
