93
 energy: -141.756941085530 gnorm: 0.000071406009 xtb: 6.7.1 (edcfbbe)
C            7.84469896415972        0.81786679054130        2.64102129915612
C            7.84717895330889        2.13668598074568        1.83972366072126
C            8.92841832166998        3.04490028462299        2.42644276104447
C            6.46435698002928        2.76109467408466        1.90804881257914
C            6.14171937444640        3.87407321308925        2.66886072292758
C            4.85603884035609        4.39044094234309        2.66608083154801
C            3.87523149750582        3.81626216332499        1.87590326605943
C            4.17530805608105        2.70885303111161        1.10514286207881
C            5.45434219200236        2.16398633632863        1.14429251891578
N            5.80249690892857        1.06317285588779        0.33662384282474
C            5.11381655211803       -0.13118865716796        0.33980931737742
C            3.98732629598173       -0.31573526032416        1.15850643663147
C            3.29069084556899       -1.50289258814374        1.15343013801783
C            3.69362658957416       -2.57045006584952        0.34830583323650
C            2.99024350980775       -3.87117573776808        0.33439735786335
O            3.63432920264742       -4.93100439508348        0.25717393634819
C            1.53950743226893       -3.87301647948189        0.40439059864276
C            0.83863283195444       -5.06144641114319        0.73192527574668
C           -0.52324218316755       -5.06996959956856        0.76506732144649
C           -1.24186773339897       -3.88555633697207        0.45473887382799
C           -2.68758852773103       -3.92454478158019        0.48593844935273
O           -3.28005884831672       -4.99739641420024        0.75774574879133
C           -3.48809112591977       -2.72204690550842        0.18650508550567
C           -4.86605050838950       -2.90892983792970        0.00098234233897
C           -5.69867673599878       -1.84943220668970       -0.27865038064309
C           -5.17309010454074       -0.56309635741392       -0.36827283201862
N           -6.01745527798319        0.54606003399253       -0.65827482204222
C           -6.71374941091995        1.14365139634258        0.37192365317600
C           -6.58984041271611        0.63676845769339        1.67418785376490
C           -7.27886989455476        1.20654172666912        2.72079636729597
C           -8.10325484833937        2.29845100864426        2.49094639208107
C           -8.22049572063190        2.80748705665586        1.21042661178345
C           -7.53959594299251        2.25421384565077        0.13416156856109
C           -7.69949530797337        2.85648538655935       -1.24519858678904
C           -7.22853515897513        4.32375832616683       -1.19954553705697
C           -9.18690351833296        2.78959976327306       -1.64562047561595
C           -6.88669039190226        2.11539435960937       -2.28486902737522
C           -6.92048714343555        2.52968900612463       -3.60986623373435
C           -6.20866104120902        1.87658787148997       -4.59939013480733
C           -5.43927195201217        0.76940528050485       -4.27226543322247
C           -5.38404571342411        0.33587978508554       -2.96701009391587
C           -6.09590104315445        1.00199743581912       -1.95824436940141
C           -3.81018942273802       -0.35729414549143       -0.17028077674162
C           -2.98051989968424       -1.42429338125175        0.10466257352205
N           -0.56178074874023       -2.78113612099325        0.10023875091639
C            0.74052608682851       -2.76483544318303        0.07249587569691
C            4.87344499278530       -2.42416260808109       -0.38451935040882
C            5.57007949759797       -1.23848331816855       -0.39397181620279
C            7.02052619358457        1.26217037890385       -0.34346932911604
C            7.13441463877048        1.01166050907278       -1.70674086401284
C            8.33084732543387        1.25667062504208       -2.35415915447829
C            9.40305627345744        1.77162568096329       -1.64625642977331
C            9.27287539752748        2.06655514550879       -0.29878366875603
C            8.08399811302960        1.82569701177325        0.37205040238766
H            8.81836449184135        0.33866226624174        2.56455712318760
H            7.09370059497582        0.12217715013386        2.27643665926498
H            7.63830680100198        1.02408793735360        3.68910917166095
H            8.97429816182728        3.99228740806599        1.89423052942855
H            9.89756142344750        2.55644722721583        2.36890978164062
H            8.72616506806918        3.23538155291531        3.47714718833977
H            6.89211372441264        4.35359236225047        3.27527434015037
H            4.62610580615400        5.25452758491175        3.27110366252155
H            2.88079610600576        4.23528202565744        1.84774239768015
H            3.43021764066528        2.27721857222434        0.45397147471512
H            3.67323311372227        0.46779453915303        1.82910328695317
H            2.44164748424951       -1.61981131082072        1.81082769142167
H            1.41392651160338       -5.94739927360973        0.96175492738385
H           -1.09496175912436       -5.94978242920838        1.02083942886611
H           -5.25164074995508       -3.91522930787937        0.07891656536424
H           -6.75622497074680       -2.00726300631309       -0.43034875564048
H           -5.94596224827510       -0.20946784986353        1.85450146306382
H           -7.17188194371542        0.80058006826418        3.71516600293550
H           -8.64787202100676        2.75173483647594        3.30492372052386
H           -8.86134945371613        3.66039411904047        1.05150768268239
H           -6.17972391842332        4.36962759793787       -0.91269876937652
H           -7.80805213220469        4.89092795228832       -0.47749372581928
H           -7.34045430209078        4.79399013802041       -2.17180661192897
H           -9.34318312110129        3.23788637690315       -2.62210643592396
H           -9.51486611338334        1.75255979779000       -1.68603632608678
H           -9.80406262494825        3.31771725366230       -0.92515753655662
H           -7.51821458666752        3.38470453552493       -3.88390597459794
H           -6.25657893583568        2.22521506617253       -5.61957915652175
H           -4.88391429445242        0.24374329834667       -5.03406795947248
H           -4.78884415376927       -0.52725961855040       -2.71416826984897
H           -3.40965282877318        0.64385378960604       -0.23288440862744
H           -1.92332154913397       -1.26533781977951        0.25084280748799
H            1.18851005673649       -1.83675781404660       -0.26015549822038
H            5.23260033573735       -3.27064081192138       -0.95200102723020
H            6.49092745245161       -1.17947149835904       -0.95083436302405
H            6.27943950748875        0.65026894081298       -2.25802496681157
H            8.41858659278776        1.05731911762705       -3.41152179200903
H           10.34035405027297        1.96216022345914       -2.14697482845332
H           10.11519797207545        2.48931060146676        0.22327683132684
