93
 energy: -141.807474761183 gnorm: 0.000050855585 xtb: 6.7.1 (edcfbbe)
C           11.41363289665950       -0.31814297955512        0.55214906989037
C           10.29202498602337       -0.09155676818345       -0.47916846419137
C           10.87337304576206       -0.08393873856939       -1.90579736953244
C            9.64708958246978        1.25554799560124       -0.21604956508549
C           10.42070205349352        2.40647330693105       -0.29850909661896
C            9.88530702479483        3.66786656010629       -0.11770826224768
C            8.52941124524002        3.79558470731292        0.12500909483904
C            7.73905203337472        2.66882529932592        0.21450738376449
C            8.28658501599010        1.38897517934377        0.07945015202264
N            7.46585990014177        0.27049165302246        0.19323981784321
C            6.11139300539896        0.44571408300096        0.55198815394066
C            5.09792062418071        0.14339796294144       -0.35724737063687
C            3.77326079125455        0.29964973594776       -0.00469517490046
C            3.43453566302292        0.77026442015295        1.26619551240537
C            2.03546070577235        0.97411651397474        1.68617401271633
O            1.72385941119542        1.77953907483787        2.54910815074869
C            0.99864808988548        0.14398608901826        1.01597947650883
C            1.18571834258529       -1.20593062484205        0.72177958117646
C            0.15032271575868       -1.90739884682395        0.13201620765290
C           -1.05065933412516       -1.24616559266081       -0.12851925494532
C           -2.16199999359222       -1.99048142144799       -0.79497867184932
O           -1.90524855046731       -2.96567163664081       -1.48689039960801
C           -3.53711096618439       -1.50168021560231       -0.61010631543439
C           -4.48725272328068       -1.83776706354813       -1.58037935507925
C           -5.79247235833368       -1.41331767214526       -1.46676741839616
C           -6.18402847553345       -0.65175896993895       -0.36554513831236
N           -7.52089717284652       -0.21203931103336       -0.24234986461053
C           -8.52830539054416       -1.14962591100807       -0.03866391827022
C           -8.20053608736286       -2.50095427323002        0.11293476533440
C           -9.17825097780610       -3.45527037955718        0.30102294708403
C          -10.50788013245235       -3.07740583686040        0.35676070315154
C          -10.83154622380814       -1.73762542767969        0.25193330194533
C           -9.86696021497004       -0.75609541686462        0.06265105506509
C          -10.29183600135994        0.69853796037824        0.00533942080121
C          -10.98159528332868        1.05885631781183        1.33490580884347
C          -11.26812330291754        0.88609310174058       -1.17127723713371
C           -9.10787239535052        1.62418832294197       -0.19776623986109
C           -9.32486745391682        2.99374964001030       -0.28191146043588
C           -8.29640268637706        3.88940404650966       -0.50651555629002
C           -7.01068428401779        3.40891259939863       -0.67945325139372
C           -6.76709507539372        2.05374814537582       -0.59930913564164
C           -7.79889337501316        1.14878433036380       -0.32964908916285
C           -5.24649814972975       -0.33359589918107        0.61636842428377
C           -3.93767562217058       -0.75259156838733        0.49823314875949
N           -1.23124682259162        0.04249953882357        0.15487130260242
C           -0.24256443112579        0.70927914035784        0.70830261196697
C            4.45444325466488        1.09808886712972        2.16389372718782
C            5.77708065873696        0.92864193128530        1.81747377442131
C            7.95466889168200       -1.01579918716924       -0.01664213354085
C            7.11367904387790       -2.11901469997716        0.16066893998672
C            7.56622032059329       -3.40397316446176       -0.05466229701882
C            8.87801470612980       -3.61650325435409       -0.43838158976845
C            9.72331794325383       -2.53126164331082       -0.57345094122433
C            9.29373766615755       -1.22725328555548       -0.36175467327210
H           11.91096900030728       -1.26883631303797        0.38174224294182
H           10.99792871572274       -0.32395400454694        1.55845385306774
H           12.15839196117329        0.47060150416147        0.49350903540036
H           11.61721853308525        0.69973963416356       -2.01767738411514
H           10.07893039850561        0.09074293186597       -2.62956756132556
H           11.34514368198056       -1.03470926552106       -2.13726158878108
H           11.47491995956817        2.32098876897988       -0.51333207450409
H           10.51717045217536        4.54083908186210       -0.18225775408693
H            8.08107174312262        4.77145085196044        0.24015145439716
H            6.67991964442059        2.78483165582537        0.38432735788275
H            5.36148444129297       -0.20989053544196       -1.34309376291876
H            3.00070305703020        0.08827285252638       -0.72853348916304
H            2.11579090117039       -1.69716884247933        0.96670705308544
H            0.24227681659092       -2.95204539038633       -0.12200083077291
H           -4.16937274682076       -2.42172542221525       -2.43164529100108
H           -6.51886612102505       -1.66275801813993       -2.22585856113022
H           -7.16637310319959       -2.80736054270228        0.09185934724887
H           -8.89674296112157       -4.49253305136350        0.40855248788369
H          -11.28411743999728       -3.81461846258634        0.49682317907375
H          -11.87012769052758       -1.45243373075157        0.32249824617500
H          -10.28733022969857        0.91939238197847        2.16196238774408
H          -11.84946697357411        0.42816504166660        1.50564763619548
H          -11.30894672525623        2.09474587014839        1.33321573198094
H          -11.60783149641130        1.91605412465373       -1.23382545111530
H          -10.77412311376056        0.63024585888724       -2.10716010779485
H          -12.13932456544942        0.24715454963736       -1.05744829487504
H          -10.32737831394619        3.37853931047059       -0.17298742079222
H           -8.50026569324962        4.94825684282948       -0.56071499596082
H           -6.19382715232360        4.08569812316605       -0.88260361336548
H           -5.76297710822000        1.69190220614252       -0.75564836565009
H           -5.55805517935723        0.24092076277809        1.47602458516363
H           -3.23044710432575       -0.51528556883959        1.27592816554100
H           -0.42935655374966        1.75459870136353        0.91817483618277
H            4.18150166925610        1.46856693384405        3.14093264314980
H            6.56256153993228        1.16836954561905        2.51845175320643
H            6.09388621955047       -1.97025643370842        0.47905165172855
H            6.89266064352026       -4.23690559639122        0.08393254813326
H            9.24447882956993       -4.61632520415456       -0.61609264990218
H           10.75110493068171       -2.71166288730321       -0.84903829938312
