93
 energy: -141.808594320817 gnorm: 0.000064593763 xtb: 6.7.1 (edcfbbe)
C            6.07678426118606        1.37582555617005        2.69845769619650
C            6.11894689074088        2.51347358895794        1.65741297206522
C            6.81536745873813        3.71514459648385        2.29665346278646
C            4.70063979306569        2.83322360754279        1.21458538691294
C            3.99550869977038        3.96755076660124        1.58821650317055
C            2.70833398639470        4.18958907524478        1.12661920210729
C            2.11368543124658        3.29305117546915        0.25590762018669
C            2.80314128812253        2.16087513965111       -0.13751628495362
C            4.07613326912495        1.91703633819371        0.36320886881639
N            4.82196059233739        0.79150710907310       -0.05583093922584
C            4.35837011935062       -0.49236526127532        0.02760703655492
C            3.08616651999616       -0.76544769549212        0.56471622237414
C            2.58304435282042       -2.04095194689969        0.58916178887644
C            3.32880399012480       -3.12280672354441        0.10242419236242
C            2.79906444810843       -4.48163177318563        0.03238452596403
O            3.50555131385731       -5.48160176535006       -0.04310832505873
C            1.31230607961124       -4.60311610837222        0.02225502227584
C            0.66614724006027       -5.63038573829202        0.70636374280188
C           -0.71725530347208       -5.68457362475350        0.69470022089690
C           -1.41298054907738       -4.68145774230582        0.02275021176131
C           -2.90568278401707       -4.61306330103160        0.04615349090733
O           -3.59355950734363       -5.61885007791421        0.08060616135710
C           -3.45631604162835       -3.24578623851491       -0.00119174472923
C           -4.65216598154287       -3.00347293879837       -0.67835622012067
C           -5.14652191710030       -1.71993591566770       -0.79043486107548
C           -4.46797458897699       -0.65562794345935       -0.19858812008942
N           -4.94039594343628        0.66953994549248       -0.33135811885590
C           -6.13583478137393        1.03860345990088        0.27705687667985
C           -6.85504206600330        0.10121785441140        1.02538459320295
C           -8.04944319098017        0.43489591038313        1.62885216148054
C           -8.54669168243216        1.72019856988910        1.50838885480613
C           -7.81818626912574        2.65976034107054        0.80341737982066
C           -6.61125119946908        2.35142495359616        0.18860389129957
C           -5.84189430123652        3.44825549991825       -0.52253136881327
C           -5.51305314281009        4.55469906067032        0.49773631509844
C           -6.71470118176836        4.01254689860313       -1.65944202881384
C           -4.54740396448761        2.93228801773762       -1.12065753859513
C           -3.72160347169771        3.81090517008369       -1.81095747014016
C           -2.54944499688798        3.39820600643371       -2.41600945404785
C           -2.19806002634841        2.06131210953995       -2.35983289296758
C           -2.99987907490598        1.16768399588135       -1.68097639681808
C           -4.16221103682476        1.59081141863514       -1.02721098655253
C           -3.30182463087386       -0.90302059785104        0.52504351058662
C           -2.79539741687787       -2.18126490418915        0.61455878589610
N           -0.79754283896874       -3.73801806786813       -0.68843795714388
C            0.51600354225910       -3.71664492241429       -0.70988546087093
C            4.64761873543633       -2.87047558761792       -0.29837527568102
C            5.15316618374182       -1.59553346448451       -0.33660902691675
C            6.14199169955360        1.13847396018494       -0.42269713633095
C            6.69346967336774        0.71055312769673       -1.62361457199581
C            7.97406516607665        1.10066546694039       -1.97059117096481
C            8.68833323147987        1.93752541199441       -1.13161674967906
C            8.11529102239880        2.40715126403252        0.03883360270994
C            6.83572252763374        2.02282861361413        0.40998646344782
H            7.08905049867046        1.11306574060618        2.99827157569672
H            5.59564548421078        0.48423701984843        2.30594403915507
H            5.52587104078120        1.70211494384277        3.57817397228028
H            6.87254694123811        4.54934794350421        1.60101948234651
H            7.82024931097217        3.44269205744391        2.60874981866921
H            6.27602914332249        4.02979798957159        3.18637808622895
H            4.44272354785329        4.69373587917739        2.24684935202449
H            2.17479640173738        5.07526544026449        1.43781181259548
H            1.12076119333059        3.47657191764836       -0.12672548939766
H            2.36425324382088        1.47134592904974       -0.84309893903424
H            2.49863032511329        0.03616409721623        0.98251328046243
H            1.60743395291204       -2.20810756134054        1.02003580331190
H            1.25292445141718       -6.35917069145440        1.24687764954953
H           -1.26175754655086       -6.45874194457694        1.21266168732142
H           -5.16459925441058       -3.83328335410823       -1.14216820245569
H           -6.05460154549409       -1.53062022054461       -1.34327079008100
H           -6.46970252136661       -0.89931328774034        1.14463158390147
H           -8.58623152155796       -0.31090772294624        2.19663218397187
H           -9.48344974988466        1.99347500256528        1.97042200506801
H           -8.20471436809492        3.66533620782890        0.73640621354993
H           -4.89816622180441        4.14878933349206        1.29933431758865
H           -6.42040355971452        4.96176574257509        0.93469956983386
H           -4.96912742924139        5.36808616133535        0.02579849639790
H           -6.20031997698248        4.81336105947265       -2.18325728915354
H           -6.94405693318123        3.22544694504856       -2.37594508871486
H           -7.64998032576262        4.40596876600366       -1.27131565680798
H           -3.99962600796486        4.85125587822404       -1.88427111390923
H           -1.92802047099408        4.10970692574094       -2.93892455623739
H           -1.30269319301566        1.70722538639504       -2.84941616528068
H           -2.72344628184071        0.12511284618250       -1.66506461287354
H           -2.79412860888826       -0.07952110725000        1.00486156481763
H           -1.89937302012776       -2.36099979919208        1.18730877072554
H            0.96001131866880       -2.95486837220173       -1.33714167305210
H            5.25782711072065       -3.70851704442436       -0.60275347803128
H            6.17722945851823       -1.44638867909106       -0.63768899884454
H            6.11257363842566        0.09159592241326       -2.29075858144495
H            8.40465819214359        0.76092252346884       -2.90063418493749
H            9.68955343179918        2.24290334609469       -1.39650623348968
H            8.68266410928675        3.08099164154815        0.65937341406171
