  93
       -141.75036985
 C          5.3223604326        1.5039471345        2.5986959851
 C          5.3688486781        2.6160165487        1.5309491289
 C          5.9188592367        3.8824197570        2.1857247224
 C          3.9718678148        2.8123399871        0.9679076521
 C          3.1524113211        3.8949378382        1.2477394486
 C          1.8851122820        3.9882784340        0.6964554949
 C          1.4254078249        3.0118452661       -0.1696201808
 C          2.2346620313        1.9339975095       -0.4758226796
 C          3.4894827993        1.8197618986        0.1103463831
 N          4.3497644187        0.7506497771       -0.2165092867
 C          3.9814644847       -0.5647391204       -0.0960069234
 C          2.7084683263       -0.9067058052        0.3914592212
 C          2.3013518123       -2.2153264280        0.4584608822
 C          3.1477861119       -3.2563831116        0.0619228262
 C          2.7178623161       -4.6604053108        0.0320194563
 O          3.4884855046       -5.6041695577        0.0433916242
 C          1.2396211511       -4.8523236297       -0.0335856044
 C          0.5911271930       -5.8241956306        0.7230287273
 C         -0.7933582238       -5.8760235111        0.7127703324
 C         -1.4816503899       -4.9152852942       -0.0233020092
 C         -2.9662323050       -4.7532188147        0.0683901283
 O         -3.7326974170       -5.6886341674        0.1425011585
 C         -3.3824066731       -3.3315017417        0.0552437996
 C         -4.5483723991       -2.9461180045       -0.6025095370
 C         -4.8934283438       -1.6120060806       -0.6883129340
 C         -4.0936938671       -0.6429546689       -0.0869165000
 N         -4.4170226280        0.7283924316       -0.1916283371
 C         -5.5597868025        1.2092773365        0.4364350059
 C         -6.3483426996        0.3447715533        1.2018568036
 C         -7.4974456916        0.7890655700        1.8207792666
 C         -7.8784723894        2.1128734654        1.6978275499
 C         -7.0791646766        2.9791201329        0.9765914984
 C         -5.9142817662        2.5589890646        0.3480052692
 C         -5.0597189122        3.5741059244       -0.3856793218
 C         -4.6334578504        4.6671116572        0.6115484504
 C         -5.8897169556        4.1871620118       -1.5284076964
 C         -3.8175377620        2.9415608846       -0.9819541408
 C         -2.9181913426        3.7391850211       -1.6772925078
 C         -1.7917259961        3.2193129011       -2.2864625759
 C         -1.5634551344        1.8560681346       -2.2256151935
 C         -2.4390882289        1.0412494273       -1.5397527209
 C         -3.5581146496        1.5700220732       -0.8871688459
 C         -2.9582304733       -1.0319928409        0.6208849380
 C         -2.5994277668       -2.3608639238        0.6805234392
 N         -0.8631910053       -4.0484776521       -0.8231886761
 C          0.4484151581       -4.0415538409       -0.8543811973
 C          4.4593196271       -2.9249923532       -0.2924693021
 C          4.8719359361       -1.6169561768       -0.3683874131
 C          5.6660193157        1.1821660222       -0.4838541315
 C          6.3524729062        0.7511839200       -1.6119842815
 C          7.6288263648        1.2196522585       -1.8627581478
 C          8.2049278606        2.1384834259       -1.0042527477
 C          7.4979757813        2.6091195472        0.0897216113
 C          6.2217589510        2.1443489703        0.3658134131
 H          6.3226377611        1.3223958131        2.9862402899
 H          4.9392279557        0.5721579472        2.1931090753
 H          4.6792698980        1.8091115280        3.4217273336
 H          5.9735138480        4.7003966277        1.4707167468
 H          6.9112372014        3.6960509791        2.5886348302
 H          5.2844794021        4.1797508855        3.0171096495
 H          3.4915699832        4.6789480544        1.9050795914
 H          1.2589295367        4.8339458506        0.9368906022
 H          0.4447930856        3.0902033199       -0.6146514589
 H          1.9023072976        1.1830405931       -1.1766374967
 H          2.0426034747       -0.1326078382        0.7367037031
 H          1.3192802585       -2.4320041805        0.8502585712
 H          1.1737304539       -6.5035605242        1.3281486397
 H         -1.3399059583       -6.6038073293        1.2918316712
 H         -5.1578416778       -3.7030827818       -1.0723728704
 H         -5.7799552819       -1.3083328450       -1.2252484575
 H         -6.0522035655       -0.6857356623        1.3206263944
 H         -8.0905522156        0.0986146561        2.4012197785
 H         -8.7800444057        2.4717410596        2.1696250259
 H         -7.3749296141        4.0148801067        0.9063603550
 H         -4.0489924845        4.2255829855        1.4168836128
 H         -5.4999363071        5.1566367858        1.0466685092
 H         -4.0271109038        5.4248285835        0.1231563559
 H         -5.3142219816        4.9320336500       -2.0710356303
 H         -6.1879043438        3.4080762599       -2.2275335326
 H         -6.7868816095        4.6635716179       -1.1431123982
 H         -3.1012002783        4.8001484430       -1.7547594028
 H         -1.1123449481        3.8688522702       -2.8175932723
 H         -0.7068179718        1.4210194842       -2.7189630746
 H         -2.2586121735       -0.0216466674       -1.5203340511
 H         -2.3567886940       -0.2786253913        1.1080754251
 H         -1.7217604598       -2.6510365237        1.2372718893
 H          0.8985367819       -3.3447056817       -1.5491041314
 H          5.1435524587       -3.7262489203       -0.5277138040
 H          5.8960408179       -1.4034289166       -0.6265641506
 H          5.8768115677        0.0690191152       -2.3004522905
 H          8.1643332243        0.8764038792       -2.7346798169
 H          9.2018563978        2.5057865107       -1.1940902706
 H          7.9589635103        3.3456761897        0.7274629549
