  82
       -118.34494869
 C         -9.9702933851       -0.5782268936        1.2104961790
 C         -9.1348140580       -0.0014379343        0.0523081795
 C        -10.0595431479        0.5602817758       -1.0435794409
 C         -8.2767723702        1.1281793585        0.5813514851
 C         -8.8862762645        2.2428890818        1.1405912189
 C         -8.1586512597        3.3284415405        1.5915841969
 C         -6.7805231844        3.3235020655        1.4542011225
 C         -6.1496193987        2.2291726854        0.9062512918
 C         -6.8780335396        1.1040602766        0.4958096732
 N         -6.2095633753        0.0100246133       -0.0251499909
 C         -4.7979677111        0.0060228977       -0.0331485385
 C         -4.0828301463        0.0168680994        1.1803082719
 C         -2.7201380513       -0.0044492752        1.1849310959
 C         -1.9832653273       -0.0096727669       -0.0401958848
 C         -0.6182272486       -0.0192123227       -0.0412459551
 C          0.6178892297       -0.0265870925       -0.0328384582
 C          1.9829131298       -0.0298282386       -0.0257396596
 C          2.7301756742       -0.0271475391       -1.2445143575
 C          4.0929981106       -0.0095190846       -1.2281696715
 C          4.7977287552       -0.0215997015       -0.0087132836
 N          6.2091980871       -0.0094282132       -0.0003475939
 C          6.8935446748       -1.0974839519        0.5127231877
 C          6.1803486597       -2.2257125296        0.9408861494
 C          6.8285857309       -3.3143510197        1.4798965549
 C          8.2091736134       -3.3107605771        1.5899280525
 C          8.9210789677       -2.2221380261        1.1217437125
 C          8.2938535427       -1.1124276849        0.5721344023
 C          9.1354085639        0.0187077520        0.0201070730
 C         10.0284333102       -0.5426141404       -1.1021194156
 C         10.0036327359        0.5962189808        1.1534289112
 C          8.2800798926        1.1336317366       -0.5436153667
 C          8.8936343223        2.2549276874       -1.0850972971
 C          8.1677670455        3.3288742080       -1.5655436994
 C          6.7859403000        3.3056260399       -1.4760200111
 C          6.1511572373        2.2054256443       -0.9445054876
 C          6.8796041159        1.0915144893       -0.5046206068
 C          4.0786782758       -0.0425622733        1.2021331221
 C          2.7156335538       -0.0337723316        1.2018799301
 C         -2.7262470576       -0.0032506799       -1.2615080835
 C         -4.0894679340       -0.0087445311       -1.2501026086
 C         -6.8956114730       -1.0844864046       -0.5223308033
 C         -6.1827543393       -2.2004462339       -0.9817886689
 C         -6.8345959790       -3.2950301491       -1.5043005910
 C         -8.2180422475       -3.3104938070       -1.5651625719
 C         -8.9277561184       -2.2339582455       -1.0667069996
 C         -8.2968986345       -1.1178433793       -0.5344767555
 H        -10.5900108350        0.1916008285        1.6612674163
 H         -9.3110416661       -0.9815040775        1.9768470259
 H        -10.6182497512       -1.3767908227        0.8609927078
 H        -10.6880690541        1.3546065271       -0.6516560872
 H        -10.7038847709       -0.2176475303       -1.4427929336
 H         -9.4629778819        0.9649700312       -1.8589473981
 H         -9.9618164477        2.2722109048        1.2258702379
 H         -8.6641536755        4.1763657922        2.0272082196
 H         -6.1961177771        4.1751657094        1.7677830356
 H         -5.0791451947        2.2411479234        0.7803989393
 H         -4.6368223653        0.0158756670        2.1087513809
 H         -2.1713991552       -0.0248993681        2.1146311207
 H          2.1895236610       -0.0447680876       -2.1790033757
 H          4.6547228506       -0.0108516053       -2.1519721240
 H          5.1078197907       -2.2451220654        0.8354379086
 H          6.2557134143       -4.1686851457        1.8071922285
 H          8.7282938887       -4.1547934798        2.0170280400
 H          9.9982978237       -2.2453269718        1.1845171974
 H         10.6535464628        0.2378449274       -1.5262088386
 H          9.4088672048       -0.9562205112       -1.8955679412
 H         10.6748699592       -1.3303316468       -0.7261866848
 H          9.3667053354        0.9955772103        1.9404535516
 H         10.6399436933       -0.1719520082        1.5834187508
 H         10.6380084922        1.3977475892        0.7861961469
 H          9.9710069314        2.2991715748       -1.1319565927
 H          8.6765339803        4.1822709429       -1.9864497969
 H          6.2011873382        4.1479034561       -1.8133793759
 H          5.0771085019        2.2047824633       -0.8545809305
 H          4.6289608121       -0.0386288879        2.1327899333
 H          2.1637361904       -0.0215599788        2.1298647075
 H         -2.1823713624        0.0127082352       -2.1941636509
 H         -4.6476371695        0.0011754518       -2.1760115150
 H         -5.1071233535       -2.2065090743       -0.9140033418
 H         -6.2617013976       -4.1393951450       -1.8565205907
 H         -8.7403320384       -4.1599265352       -1.9774168504
 H        -10.0060888757       -2.2723397341       -1.0904220633
  82
       -118.34486309
 C         -9.9415535391       -0.5256162794        1.2679998670
 C         -9.1333245357        0.0076978033        0.0701749071
 C        -10.0831553482        0.5245562855       -1.0262500092
 C         -8.2676271061        1.1585201618        0.5373872521
 C         -8.8681364812        2.2988731610        1.0529393621
 C         -8.1326020240        3.4003674142        1.4492176812
 C         -6.7554789358        3.3834676397        1.3020108598
 C         -6.1333265721        2.2635470189        0.7975656234
 C         -6.8699029838        1.1256637415        0.4404899148
 N         -6.2095558394        0.0091857975       -0.0412072630
 C         -4.7976703340       -0.0031153692       -0.0451855744
 C         -4.0887448116        0.0324960125        1.1713428103
 C         -2.7262383780        0.0037738869        1.1835136319
 C         -1.9834985757       -0.0291068948       -0.0376418131
 C         -0.6184049195       -0.0435094878       -0.0318215615
 C          0.6177803521       -0.0534848982       -0.0183460242
 C          1.9829438642       -0.0562324408       -0.0104810908
 C          2.7283905109       -0.0301032094       -1.2301892664
 C          4.0910684039       -0.0032227734       -1.2153850377
 C          4.7971950878       -0.0351051199        0.0027000428
 N          6.2091525909       -0.0128836879        0.0083418149
 C          6.9028345782       -1.1145027261        0.4771317867
 C          6.1980972422       -2.2597730604        0.8724803010
 C          6.8560825809       -3.3649300164        1.3640208719
 C          8.2378576809       -3.3602742875        1.4579727723
 C          8.9407410738       -2.2516764940        1.0241956234
 C          8.3036809855       -1.1246967632        0.5232447651
 C          9.1348850908        0.0334937484        0.0129068215
 C         10.0270564447       -0.4733810955       -1.1354059214
 C         10.0035518746        0.5693450111        1.1661362728
 C          8.2692303613        1.1643990131       -0.5011072826
 C          8.8719126721        2.3106230408       -1.0009484782
 C          8.1357705061        3.3968743702       -1.4361301715
 C          6.7544193389        3.3588100396       -1.3440993288
 C          6.1301548337        2.2336802064       -0.8539245471
 C          6.8692838448        1.1103223427       -0.4581910164
 C          4.0805674431       -0.0854317724        1.2138184101
 C          2.7173144479       -0.0810623092        1.2157940344
 C         -2.7204038584       -0.0428371671       -1.2626335865
 C         -4.0838385671       -0.0455435618       -1.2580420080
 C         -6.9030636057       -1.0979652100       -0.4976288237
 C         -6.1973820522       -2.2279541850       -0.9330971656
 C         -6.8573862206       -3.3385757650       -1.4095240089
 C         -8.2416906066       -3.3559680776       -1.4460704469
 C         -8.9434978075       -2.2627795181       -0.9733946115
 C         -8.3044894303       -1.1291639671       -0.4900992900
 H        -10.6003816294       -1.3333377167        0.9622986732
 H        -10.5472047574        0.2623657832        1.7066438808
 H         -9.2648262765       -0.9045010170        2.0315547889
 H        -10.7211182696        1.3168680534       -0.6453866065
 H        -10.7187541288       -0.2743644423       -1.3968718541
 H         -9.5053562359        0.9194257277       -1.8597549728
 H         -9.9427434071        2.3360549696        1.1466595841
 H         -8.6312820010        4.2692319210        1.8500524936
 H         -6.1652671992        4.2456452053        1.5731259732
 H         -5.0636238195        2.2642423622        0.6640563063
 H         -4.6477478276        0.0564959417        2.0964669252
 H         -2.1820893897        0.0016482000        2.1160948773
 H          2.1862181206       -0.0334023935       -2.1639379937
 H          4.6517486682        0.0187891232       -2.1395706420
 H          5.1243775627       -2.2785782289        0.7794111932
 H          6.2896819249       -4.2325160050        1.6669793081
 H          8.7647153883       -4.2177042634        1.8472819478
 H         10.0186220000       -2.2724335976        1.0760277436
 H         10.6568405024        0.3250335333       -1.5172915580
 H          9.4070196928       -0.8421527975       -1.9503728463
 H         10.6692293672       -1.2827245785       -0.8001499231
 H          9.3670556440        0.9192804191        1.9767003307
 H         10.6557389840       -0.2083961028        1.5530274112
 H         10.6217586145        1.3982680887        0.8337945094
 H          9.9487740010        2.3649178140       -1.0505632088
 H          8.6363533488        4.2704556692       -1.8242550137
 H          6.1620543061        4.2090246997       -1.6466095385
 H          5.0563369018        2.2197241493       -0.7619063390
 H          4.6325935511       -0.0983907052        2.1434062579
 H          2.1668590058       -0.0887648162        2.1447179762
 H         -2.1719674966       -0.0466315408       -2.1927577077
 H         -4.6372871905       -0.0536479068       -2.1867887531
 H         -5.1207445378       -2.2315574736       -0.8829954281
 H         -6.2902750816       -4.1937611500       -1.7445841910
 H         -8.7704984310       -4.2188103973       -1.8204669557
 H        -10.0220866449       -2.3020266352       -0.9777383307
  82
       -118.34271376
 C         -8.6834034675        0.0863728306        2.1657147171
 C         -8.9600297324       -0.0603299401        0.6513890617
 C        -10.4709868267       -0.1785491663        0.4467198990
 C         -8.3709785508        1.1678994976       -0.0141571590
 C         -9.1198325389        2.3008991573       -0.2858158912
 C         -8.5261406722        3.4845792464       -0.6926984455
 C         -7.1472724791        3.5614819860       -0.7774705341
 C         -6.3797589323        2.4409459961       -0.5396205155
 C         -6.9796585721        1.2197345638       -0.2181114407
 N         -6.2207683976        0.0695375371       -0.0774361151
 C         -4.8121667393        0.1065872495       -0.0877146784
 C         -4.1138020116       -0.3966748390        1.0282425528
 C         -2.7520045189       -0.3818446683        1.0655303538
 C         -1.9958841591        0.1141361582       -0.0417355548
 C         -0.6312227335        0.1229688944       -0.0203389871
 C          0.6051453191        0.1220137310       -0.0099655129
 C          1.9699086099        0.1068213854       -0.0013769675
 C          2.7220845169        0.5908843696       -1.1167740294
 C          4.0848963135        0.5701755819       -1.1026525304
 C          4.7840953466        0.0494250128        0.0035174743
 N          6.1946967432        0.0059646803        0.0041138714
 C          6.8300419469       -1.2233679116        0.0363226373
 C          6.0689959753       -2.3983616888       -0.0356890887
 C          6.6667019201       -3.6373843377        0.0221335347
 C          8.0433951028       -3.7347188601        0.1374871885
 C          8.8028462788       -2.5797045909        0.1557453847
 C          8.2271239523       -1.3180503132        0.0948831505
 C          9.1187737908       -0.0951202789        0.0568222890
 C         10.0352472153       -0.1979476640       -1.1765393224
 C          9.9613537863       -0.0519464839        1.3453569638
 C          8.3151904781        1.1851667080       -0.0317944448
 C          8.9794486718        2.4029926373       -0.0824307401
 C          8.3024137339        3.6080320810       -0.1070301550
 C          6.9189377088        3.6079407271       -0.0447002660
 C          6.2343553432        2.4143033509        0.0065943205
 C          6.9134710265        1.1884600313       -0.0220261860
 C          4.0597368822       -0.4372989421        1.1093154849
 C          2.6974487844       -0.4000324207        1.1201472601
 C         -2.7199455400        0.5791865268       -1.1831575685
 C         -4.0833710137        0.5771568956       -1.1973287086
 C         -6.8398032395       -1.1716908064       -0.0842672490
 C         -6.1009734554       -2.3080894234       -0.4293338743
 C         -6.7042367172       -3.5452639089       -0.4961608368
 C         -8.0601536096       -3.6647288879       -0.2446744357
 C         -8.7987186040       -2.5408927043        0.0860394513
 C         -8.2125100952       -1.2891317099        0.1814212446
 H         -9.1791777472        0.9740892916        2.5524693453
 H         -7.6162961794        0.1795902184        2.3532325992
 H         -9.0535026273       -0.7869424781        2.6986434988
 H        -10.7116002735       -0.2839950543       -0.6086398759
 H        -10.9773642119        0.6972132663        0.8419948098
 H        -10.8607913577       -1.0362918742        0.9870857773
 H        -10.1905249133        2.2826111604       -0.1668959733
 H         -9.1371244410        4.3490603407       -0.9021348375
 H         -6.6656453057        4.4940370443       -1.0302016455
 H         -5.3060066588        2.5123070851       -0.5919554045
 H         -4.6829151077       -0.7759431462        1.8658474092
 H         -2.2186673867       -0.7407917614        1.9330185467
 H          2.1846387174        0.9639071622       -1.9757655630
 H          4.6495930233        0.9281494153       -1.9522553676
 H          4.9993437347       -2.3301082112       -0.1496776058
 H          6.0573196419       -4.5268160423       -0.0302521761
 H          8.5230428958       -4.6996919405        0.1924191282
 H          9.8767054820       -2.6701493613        0.2155100746
 H         10.7039916304        0.6559407489       -1.2343160440
 H          9.4336969125       -0.2260300925       -2.0832075922
 H         10.6388252427       -1.1000737510       -1.1374890800
 H         10.6292616937        0.8046186740        1.3429107439
 H          9.3077734871        0.0248659185        2.2123632404
 H         10.5608841330       -0.9522980818        1.4458413501
 H         10.0585198001        2.4180139888       -0.0975956647
 H          8.8501322201        4.5365517135       -0.1531084154
 H          6.3717300786        4.5382220632       -0.0272525679
 H          5.1592028453        2.4223786845        0.0819963261
 H          4.6069442585       -0.8189119829        1.9601359313
 H          2.1422612388       -0.7479359391        1.9783647648
 H         -2.1607700775        0.9145947839       -2.0439316617
 H         -4.6205047766        0.8945577930       -2.0800658279
 H         -5.0518983701       -2.2078002370       -0.6587160469
 H         -6.1178619778       -4.4124689455       -0.7593814794
 H         -8.5442585743       -4.6273470391       -0.3045164102
 H         -9.8519285861       -2.6609886738        0.2789255417
  82
       -118.34256279
 C         -9.8897460320       -0.8550604679        1.1912661494
 C         -9.1021807585       -0.2166755942        0.0318173188
 C        -10.0678779793        0.2641149132       -1.0673176151
 C         -8.3396510238        0.9814018877        0.5564090997
 C         -9.0382845850        2.0441691636        1.1125113414
 C         -8.4019115068        3.1875214910        1.5587050140
 C         -7.0282062818        3.2959153685        1.4189036796
 C         -6.3099114549        2.2551525756        0.8742160687
 C         -6.9437164827        1.0722160967        0.4693461430
 N         -6.1874575858        0.0351996387       -0.0479089219
 C         -4.7799734448        0.1416219529       -0.0475090589
 C         -4.0756245895        0.2109270224        1.1704241606
 C         -2.7143869709        0.2742512645        1.1839731421
 C         -1.9693007814        0.2971789122       -0.0361581821
 C         -0.6048416779        0.3352715138       -0.0259419423
 C          0.6313370150        0.3437218131       -0.0051812686
 C          1.9957015380        0.3192223284        0.0249008627
 C          2.7678848250        0.3067247216       -1.1779162161
 C          4.1282226038        0.2391364685       -1.1322452710
 C          4.8052987097        0.1475072269        0.0998866303
 N          6.2101570865        0.0289561615        0.0988848086
 C          6.8379244909       -1.0720297380        0.6576746776
 C          6.1056949032       -2.0190250002        1.3809641627
 C          6.7373381703       -3.0710799544        2.0087134486
 C          8.1116025352       -3.2021369737        1.9189426018
 C          8.8312407363       -2.3148467423        1.1362315453
 C          8.2202969888       -1.2594958658        0.4780324325
 C          8.9506170419       -0.4192039016       -0.5522426151
 C          8.7030070879       -1.0933763808       -1.9212333777
 C         10.4598187141       -0.3656501019       -0.3023268580
 C          8.3316856259        0.9610474536       -0.6182197671
 C          9.0432818792        2.0827130682       -1.0140494534
 C          8.4339295234        3.3173094373       -1.1613683662
 C          7.0805232465        3.4494149318       -0.9026752533
 C          6.3520816159        2.3536782821       -0.4941640168
 C          6.9602005471        1.1010261691       -0.3573317550
 C          4.0639123768        0.2076421596        1.2960453306
 C          2.7041844974        0.3019192692        1.2667758893
 C         -2.7033861837        0.2612068912       -1.2624395096
 C         -4.0636207697        0.1708275728       -1.2597474616
 C         -6.7814980776       -1.1145162404       -0.5398545835
 C         -5.9799642915       -2.1705257061       -0.9949367106
 C         -6.5400676897       -3.3172366963       -1.5120732554
 C         -7.9175932118       -3.4466031789       -1.5712911358
 C         -8.7127811343       -2.4297504795       -1.0766469352
 C         -8.1753295634       -1.2630489307       -0.5502567320
 H         -9.2015221098       -1.1975342238        1.9617798414
 H        -10.4677000831       -1.7070262397        0.8448957477
 H        -10.5732554337       -0.1373813170        1.6359006583
 H         -9.5054722096        0.7180599706       -1.8811031405
 H        -10.7631803165        1.0019676331       -0.6776141972
 H        -10.6421602639       -0.5661250709       -1.4681409816
 H        -10.1124892084        1.9850618699        1.1994276323
 H         -8.9750861347        3.9927256457        1.9916220058
 H         -6.5157172006        4.1940928073        1.7284379043
 H         -5.2441120855        2.3542238255        0.7463812182
 H         -4.6347662486        0.1844666577        2.0953715837
 H         -2.1721918261        0.2960732800        2.1174425048
 H          2.2479722056        0.3414362770       -2.1235949248
 H          4.7092719854        0.2263284993       -2.0441146014
 H          5.0333894283       -1.9338575109        1.4400386163
 H          6.1537750265       -3.7877752127        2.5664157482
 H          8.6194709282       -4.0102713713        2.4222750024
 H          9.8920696943       -2.4732783331        1.0356022626
 H          9.1860799174       -0.5226609005       -2.7114778662
 H          7.6375160954       -1.1456125825       -2.1338235919
 H          9.1032113110       -2.1049736200       -1.9187291554
 H         10.9578582825        0.1922654936       -1.0896073326
 H         10.6749547213        0.1028368983        0.6553398059
 H         10.8850942232       -1.3646143819       -0.3128692355
 H         10.0973844209        2.0080605377       -1.2242098910
 H          9.0160867609        4.1693777137       -1.4773612895
 H          6.5940475001        4.4073405511       -1.0069218933
 H          5.3039356614        2.4593685926       -0.2624957193
 H          4.5929631054        0.2148753388        2.2388361980
 H          2.1363889026        0.3692611240        2.1828663786
 H         -2.1552197574        0.3079493371       -2.1915290926
 H         -4.6151778749        0.1435258600       -2.1892722094
 H         -4.9074200377       -2.0884584319       -0.9286039811
 H         -5.8998476478       -4.1129566302       -1.8615812313
 H         -8.3686842996       -4.3378946369       -1.9792307997
 H         -9.7843449149       -2.5568018216       -1.0988884459
  82
       -118.34220300
 C        -10.0557501678       -0.8782389000       -0.1539005906
 C         -9.0555699462        0.2844439187       -0.2966889891
 C         -9.7972704968        1.5833230366       -0.6630511329
 C         -8.3527850830        0.4747451678        1.0308515157
 C         -9.0991561207        0.7870535595        2.1587442600
 C         -8.5218861678        0.9156948186        3.4083359730
 C         -7.1623372935        0.6940559920        3.5519855791
 C         -6.3974263469        0.3850612595        2.4495177950
 C         -6.9685610420        0.3056779835        1.1719985175
 N         -6.1657420858        0.0202987617        0.0820899310
 C         -4.7686875474       -0.0827147563        0.2556327091
 C         -4.1073288186       -1.3010592810        0.0065439805
 C         -2.7529197007       -1.3960923243        0.1280667887
 C         -1.9677252519       -0.2531652550        0.4759723437
 C         -0.6046042669       -0.3117906741        0.5147897824
 C          0.6314572883       -0.3430630605        0.4997602999
 C          1.9946211678       -0.3443857039        0.4338966258
 C          2.7428605897        0.8483565059        0.6830731957
 C          4.0989509579        0.8589098121        0.5581508239
 C          4.7973614917       -0.2973142750        0.1541174794
 N          6.1935737673       -0.2120548400       -0.0098469257
 C          6.9688764487        0.0467037447        1.1103376952
 C          6.4364132134       -0.1839066869        2.3826157751
 C          7.2074480726        0.0025599347        3.5095616810
 C          8.5278781469        0.3993056799        3.3829711435
 C          9.0611463637        0.6247729269        2.1246725667
 C          8.3009621816        0.4665562346        0.9774641732
 C          8.8002463639        0.8156039129       -0.4073985980
 C         10.3266243194        0.8262789750       -0.4983109225
 C          8.2847020525        2.2370838650       -0.7310661668
 C          8.1551630466       -0.1175993470       -1.4132530814
 C          8.7836675196       -0.5023173092       -2.5858763003
 C          8.1055853812       -1.1836166427       -3.5832993989
 C          6.7546817991       -1.4427012304       -3.4347017286
 C          6.1104713824       -1.0928390761       -2.2665953900
 C          6.8095398943       -0.4818501770       -1.2220851777
 C          4.0833726550       -1.4968336214       -0.0322472774
 C          2.7271034051       -1.5282357923        0.1092145786
 C         -2.6594491281        0.9674279047        0.7525847500
 C         -4.0167365782        1.0400625248        0.6530081058
 C         -6.6995563221       -0.1321554977       -1.1865004402
 C         -5.8457300833       -0.3343597549       -2.2796761415
 C         -6.3460757374       -0.5136973125       -3.5498402260
 C         -7.7137885672       -0.4792911332       -3.7642018337
 C         -8.5577252113       -0.2300741644       -2.6981457963
 C         -8.0806224286       -0.0429578882       -1.4079129165
 H         -9.5248256419       -1.7934393686        0.1013973481
 H        -10.5939440121       -1.0413525672       -1.0833027220
 H        -10.7801892340       -0.6724742089        0.6289089280
 H         -9.0857482626        2.4012976626       -0.7593375128
 H        -10.5206871515        1.8458465959        0.1034347103
 H        -10.3256332545        1.4762594167       -1.6059374435
 H        -10.1650242942        0.9295219115        2.0665445487
 H         -9.1309801503        1.1657183270        4.2632376705
 H         -6.6978673124        0.7549741729        4.5244117818
 H         -5.3439657979        0.1904991135        2.5701556203
 H         -4.6974404437       -2.1650875166       -0.2658876455
 H         -2.2478833901       -2.3350927850       -0.0424539078
 H          2.2056928560        1.7441565722        0.9565436654
 H          4.6606463688        1.7650218413        0.7394256777
 H          5.4170399845       -0.5252336001        2.4741573745
 H          6.7815040049       -0.1760695438        4.4851816484
 H          9.1427758556        0.5367269383        4.2591312061
 H         10.0899143693        0.9374918222        2.0534807357
 H         10.7350856657       -0.1583670630       -0.2825957773
 H         10.7418998802        1.5446276415        0.2028316890
 H         10.6452129947        1.1350640202       -1.4898504878
 H          8.6880708894        2.9517705168       -0.0166912364
 H          8.5915282741        2.5268885506       -1.7337656219
 H          7.1991160491        2.2728106622       -0.6808414968
 H          9.8211739455       -0.2606644105       -2.7474509692
 H          8.6237156185       -1.4753738334       -4.4838065543
 H          6.1989233841       -1.9201853533       -4.2275187319
 H          5.0549161751       -1.2828165989       -2.1659966908
 H          4.6299276168       -2.4043508163       -0.2475620499
 H          2.1821538458       -2.4523073781       -0.0146682337
 H         -2.0787483802        1.8367235624        1.0226859787
 H         -4.5337916384        1.9699622172        0.8449064868
 H         -4.7791142226       -0.3377489218       -2.1258047720
 H         -5.6664114355       -0.6726414434       -4.3732497658
 H         -8.1185368307       -0.6255031637       -4.7536808865
 H         -9.6196774677       -0.1770639605       -2.8834086159
  82
       -118.34193203
 C         -7.0681561733        2.4734868861        0.1906542050
 C         -8.2089236687        1.4404085132        0.0843596110
 C         -9.5372542024        2.1939208436        0.1313189441
 C         -8.0355298376        0.6425612657       -1.1946386476
 C         -8.8307801007        0.7726734389       -2.3196278566
 C         -8.6048614950       -0.0033863120       -3.4461719210
 C         -7.5928680761       -0.9492961046       -3.4478595279
 C         -6.7926032558       -1.1032385541       -2.3337088046
 C         -6.9886246747       -0.2907608094       -1.2192537752
 N         -6.2248157568       -0.4548786465       -0.0534888217
 C         -4.8482325372       -0.4628488202       -0.0374740814
 C         -4.1256494919       -0.5323897502        1.1804935739
 C         -2.7653340007       -0.5288851191        1.1991929730
 C         -2.0053483048       -0.4304165652       -0.0078719075
 C         -0.6430048799       -0.4218569166        0.0005578179
 C          0.5932229635       -0.3875719425       -0.0004607336
 C          1.9571778545       -0.3206432123        0.0008534572
 C          2.6883047918       -0.1299779204       -1.2115476440
 C          4.0490820175       -0.0405366720       -1.1997916997
 C          4.7637518394       -0.1167347343        0.0104696572
 N          6.1697522369        0.0071670490        0.0197982621
 C          6.9415051845       -0.9494397273       -0.6177449024
 C          6.3232445329       -2.0642056926       -1.1994040190
 C          7.0591599709       -3.0210323168       -1.8624104323
 C          8.4356347721       -2.8973515904       -1.9463870851
 C          9.0553765452       -1.8262733080       -1.3303194044
 C          8.3384706384       -0.8479207717       -0.6550972848
 C          9.0849209759        0.2648495848        0.0505215093
 C          9.9180538669        1.0444281256       -0.9836653742
 C         10.0070780785       -0.3645053058        1.1112363396
 C          8.1402919983        1.2326421006        0.7316878660
 C          8.6603199937        2.3233438108        1.4150353775
 C          7.8497224319        3.2728775271        2.0084264231
 C          6.4751041869        3.1543378763        1.8933271470
 C          5.9323759014        2.0802206982        1.2236247263
 C          6.7483267732        1.0875710306        0.6648391923
 C          4.0598581839       -0.3096004023        1.2144720304
 C          2.7009670536       -0.4216555870        1.2165021300
 C         -2.7429938689       -0.2731305791       -1.2226746485
 C         -4.1028949921       -0.2784034721       -1.2298419665
 C         -7.0244617443       -0.4983035405        1.0992776607
 C         -6.8674916315       -1.4996974079        2.0546826900
 C         -7.7048780912       -1.5433448780        3.1514640375
 C         -8.7141532553       -0.6045558413        3.2880747441
 C         -8.9018756980        0.3624955136        2.3124473936
 C         -8.0708572504        0.4300835981        1.2079716381
 H         -7.1293538552        3.1764144538       -0.6376775366
 H         -6.0918316575        1.9990684316        0.1646867973
 H         -7.1559931802        3.0251157651        1.1244237398
 H        -10.3785122679        1.5080721084        0.0608880779
 H         -9.5913174696        2.9074617582       -0.6871353685
 H         -9.6148548874        2.7573363362        1.0579026653
 H         -9.6388019427        1.4858901966       -2.3350029380
 H         -9.2309205437        0.1215911770       -4.3162183759
 H         -7.4351450622       -1.5768440591       -4.3117291344
 H         -6.0307268613       -1.8676739639       -2.3079434475
 H         -4.6628939064       -0.5553841326        2.1151162338
 H         -2.2331932237       -0.5779773098        2.1376870185
 H          2.1378389471       -0.0433627329       -2.1365085802
 H          4.5975674906        0.1158624138       -2.1182278396
 H          5.2548343342       -2.1803010094       -1.1167700319
 H          6.5573361890       -3.8671329863       -2.3070088916
 H          9.0229176623       -3.6366412050       -2.4687841885
 H         10.1315093154       -1.7578469622       -1.3763266827
 H         10.4946128716        1.8300137476       -0.5040139374
 H          9.2599670482        1.5021339880       -1.7197753363
 H         10.6075190725        0.3847778139       -1.5026611835
 H         10.7155296292       -1.0481977931        0.6524511161
 H         10.5662082312        0.4012437209        1.6412744976
 H          9.4135698981       -0.9198272933        1.8350436340
 H          9.7305441356        2.4436076343        1.4853033906
 H          8.2873149727        4.1056905836        2.5369535573
 H          5.8231867459        3.9023116134        2.3187457078
 H          4.8620653197        2.0083657742        1.1175995338
 H          4.6197126254       -0.3862633926        2.1361371561
 H          2.1620807034       -0.5917297133        2.1366627694
 H         -2.1934364355       -0.1239601208       -2.1402798922
 H         -4.6231167093       -0.1049557566       -2.1583279991
 H         -6.1084797986       -2.2547418956        1.9159493897
 H         -7.5781811438       -2.3182790531        3.8921042589
 H         -9.3686121516       -0.6334498520        4.1455902649
 H         -9.7089625464        1.0672331891        2.4295224897
