  82
  -117.810870046800       0.548297081467442      !
 C         -9.9702933851       -0.5782268936        1.2104961790
 C         -9.1348140580       -0.0014379343        0.0523081795
 C        -10.0595431479        0.5602817758       -1.0435794409
 C         -8.2767723702        1.1281793585        0.5813514851
 C         -8.8862762645        2.2428890818        1.1405912189
 C         -8.1586512597        3.3284415405        1.5915841969
 C         -6.7805231844        3.3235020655        1.4542011225
 C         -6.1496193987        2.2291726854        0.9062512918
 C         -6.8780335396        1.1040602766        0.4958096732
 N         -6.2095633753        0.0100246133       -0.0251499909
 C         -4.7979677111        0.0060228977       -0.0331485385
 C         -4.0828301463        0.0168680994        1.1803082719
 C         -2.7201380513       -0.0044492752        1.1849310959
 C         -1.9832653273       -0.0096727669       -0.0401958848
 C         -0.6182272486       -0.0192123227       -0.0412459551
 C          0.6178892297       -0.0265870925       -0.0328384582
 C          1.9829131298       -0.0298282386       -0.0257396596
 C          2.7301756742       -0.0271475391       -1.2445143575
 C          4.0929981106       -0.0095190846       -1.2281696715
 C          4.7977287552       -0.0215997015       -0.0087132836
 N          6.2091980871       -0.0094282132       -0.0003475939
 C          6.8935446748       -1.0974839519        0.5127231877
 C          6.1803486597       -2.2257125296        0.9408861494
 C          6.8285857309       -3.3143510197        1.4798965549
 C          8.2091736134       -3.3107605771        1.5899280525
 C          8.9210789677       -2.2221380261        1.1217437125
 C          8.2938535427       -1.1124276849        0.5721344023
 C          9.1354085639        0.0187077520        0.0201070730
 C         10.0284333102       -0.5426141404       -1.1021194156
 C         10.0036327359        0.5962189808        1.1534289112
 C          8.2800798926        1.1336317366       -0.5436153667
 C          8.8936343223        2.2549276874       -1.0850972971
 C          8.1677670455        3.3288742080       -1.5655436994
 C          6.7859403000        3.3056260399       -1.4760200111
 C          6.1511572373        2.2054256443       -0.9445054876
 C          6.8796041159        1.0915144893       -0.5046206068
 C          4.0786782758       -0.0425622733        1.2021331221
 C          2.7156335538       -0.0337723316        1.2018799301
 C         -2.7262470576       -0.0032506799       -1.2615080835
 C         -4.0894679340       -0.0087445311       -1.2501026086
 C         -6.8956114730       -1.0844864046       -0.5223308033
 C         -6.1827543393       -2.2004462339       -0.9817886689
 C         -6.8345959790       -3.2950301491       -1.5043005910
 C         -8.2180422475       -3.3104938070       -1.5651625719
 C         -8.9277561184       -2.2339582455       -1.0667069996
 C         -8.2968986345       -1.1178433793       -0.5344767555
 H        -10.5900108350        0.1916008285        1.6612674163
 H         -9.3110416661       -0.9815040775        1.9768470259
 H        -10.6182497512       -1.3767908227        0.8609927078
 H        -10.6880690541        1.3546065271       -0.6516560872
 H        -10.7038847709       -0.2176475303       -1.4427929336
 H         -9.4629778819        0.9649700312       -1.8589473981
 H         -9.9618164477        2.2722109048        1.2258702379
 H         -8.6641536755        4.1763657922        2.0272082196
 H         -6.1961177771        4.1751657094        1.7677830356
 H         -5.0791451947        2.2411479234        0.7803989393
 H         -4.6368223653        0.0158756670        2.1087513809
 H         -2.1713991552       -0.0248993681        2.1146311207
 H          2.1895236610       -0.0447680876       -2.1790033757
 H          4.6547228506       -0.0108516053       -2.1519721240
 H          5.1078197907       -2.2451220654        0.8354379086
 H          6.2557134143       -4.1686851457        1.8071922285
 H          8.7282938887       -4.1547934798        2.0170280400
 H          9.9982978237       -2.2453269718        1.1845171974
 H         10.6535464628        0.2378449274       -1.5262088386
 H          9.4088672048       -0.9562205112       -1.8955679412
 H         10.6748699592       -1.3303316468       -0.7261866848
 H          9.3667053354        0.9955772103        1.9404535516
 H         10.6399436933       -0.1719520082        1.5834187508
 H         10.6380084922        1.3977475892        0.7861961469
 H          9.9710069314        2.2991715748       -1.1319565927
 H          8.6765339803        4.1822709429       -1.9864497969
 H          6.2011873382        4.1479034561       -1.8133793759
 H          5.0771085019        2.2047824633       -0.8545809305
 H          4.6289608121       -0.0386288879        2.1327899333
 H          2.1637361904       -0.0215599788        2.1298647075
 H         -2.1823713624        0.0127082352       -2.1941636509
 H         -4.6476371695        0.0011754518       -2.1760115150
 H         -5.1071233535       -2.2065090743       -0.9140033418
 H         -6.2617013976       -4.1393951450       -1.8565205907
 H         -8.7403320384       -4.1599265352       -1.9774168504
 H        -10.0060888757       -2.2723397341       -1.0904220633
  82
  -117.810645750200       0.432450450472734      !
 C         -9.9415535391       -0.5256162794        1.2679998670
 C         -9.1333245357        0.0076978033        0.0701749071
 C        -10.0831553482        0.5245562855       -1.0262500092
 C         -8.2676271061        1.1585201618        0.5373872521
 C         -8.8681364812        2.2988731610        1.0529393621
 C         -8.1326020240        3.4003674142        1.4492176812
 C         -6.7554789358        3.3834676397        1.3020108598
 C         -6.1333265721        2.2635470189        0.7975656234
 C         -6.8699029838        1.1256637415        0.4404899148
 N         -6.2095558394        0.0091857975       -0.0412072630
 C         -4.7976703340       -0.0031153692       -0.0451855744
 C         -4.0887448116        0.0324960125        1.1713428103
 C         -2.7262383780        0.0037738869        1.1835136319
 C         -1.9834985757       -0.0291068948       -0.0376418131
 C         -0.6184049195       -0.0435094878       -0.0318215615
 C          0.6177803521       -0.0534848982       -0.0183460242
 C          1.9829438642       -0.0562324408       -0.0104810908
 C          2.7283905109       -0.0301032094       -1.2301892664
 C          4.0910684039       -0.0032227734       -1.2153850377
 C          4.7971950878       -0.0351051199        0.0027000428
 N          6.2091525909       -0.0128836879        0.0083418149
 C          6.9028345782       -1.1145027261        0.4771317867
 C          6.1980972422       -2.2597730604        0.8724803010
 C          6.8560825809       -3.3649300164        1.3640208719
 C          8.2378576809       -3.3602742875        1.4579727723
 C          8.9407410738       -2.2516764940        1.0241956234
 C          8.3036809855       -1.1246967632        0.5232447651
 C          9.1348850908        0.0334937484        0.0129068215
 C         10.0270564447       -0.4733810955       -1.1354059214
 C         10.0035518746        0.5693450111        1.1661362728
 C          8.2692303613        1.1643990131       -0.5011072826
 C          8.8719126721        2.3106230408       -1.0009484782
 C          8.1357705061        3.3968743702       -1.4361301715
 C          6.7544193389        3.3588100396       -1.3440993288
 C          6.1301548337        2.2336802064       -0.8539245471
 C          6.8692838448        1.1103223427       -0.4581910164
 C          4.0805674431       -0.0854317724        1.2138184101
 C          2.7173144479       -0.0810623092        1.2157940344
 C         -2.7204038584       -0.0428371671       -1.2626335865
 C         -4.0838385671       -0.0455435618       -1.2580420080
 C         -6.9030636057       -1.0979652100       -0.4976288237
 C         -6.1973820522       -2.2279541850       -0.9330971656
 C         -6.8573862206       -3.3385757650       -1.4095240089
 C         -8.2416906066       -3.3559680776       -1.4460704469
 C         -8.9434978075       -2.2627795181       -0.9733946115
 C         -8.3044894303       -1.1291639671       -0.4900992900
 H        -10.6003816294       -1.3333377167        0.9622986732
 H        -10.5472047574        0.2623657832        1.7066438808
 H         -9.2648262765       -0.9045010170        2.0315547889
 H        -10.7211182696        1.3168680534       -0.6453866065
 H        -10.7187541288       -0.2743644423       -1.3968718541
 H         -9.5053562359        0.9194257277       -1.8597549728
 H         -9.9427434071        2.3360549696        1.1466595841
 H         -8.6312820010        4.2692319210        1.8500524936
 H         -6.1652671992        4.2456452053        1.5731259732
 H         -5.0636238195        2.2642423622        0.6640563063
 H         -4.6477478276        0.0564959417        2.0964669252
 H         -2.1820893897        0.0016482000        2.1160948773
 H          2.1862181206       -0.0334023935       -2.1639379937
 H          4.6517486682        0.0187891232       -2.1395706420
 H          5.1243775627       -2.2785782289        0.7794111932
 H          6.2896819249       -4.2325160050        1.6669793081
 H          8.7647153883       -4.2177042634        1.8472819478
 H         10.0186220000       -2.2724335976        1.0760277436
 H         10.6568405024        0.3250335333       -1.5172915580
 H          9.4070196928       -0.8421527975       -1.9503728463
 H         10.6692293672       -1.2827245785       -0.8001499231
 H          9.3670556440        0.9192804191        1.9767003307
 H         10.6557389840       -0.2083961028        1.5530274112
 H         10.6217586145        1.3982680887        0.8337945094
 H          9.9487740010        2.3649178140       -1.0505632088
 H          8.6363533488        4.2704556692       -1.8242550137
 H          6.1620543061        4.2090246997       -1.6466095385
 H          5.0563369018        2.2197241493       -0.7619063390
 H          4.6325935511       -0.0983907052        2.1434062579
 H          2.1668590058       -0.0887648162        2.1447179762
 H         -2.1719674966       -0.0466315408       -2.1927577077
 H         -4.6372871905       -0.0536479068       -2.1867887531
 H         -5.1207445378       -2.2315574736       -0.8829954281
 H         -6.2902750816       -4.1937611500       -1.7445841910
 H         -8.7704984310       -4.2188103973       -1.8204669557
 H        -10.0220866449       -2.3020266352       -0.9777383307
  82
  -117.807705055000       1.925246805982413E-002 !
 C         -9.8897460320       -0.8550604679        1.1912661494
 C         -9.1021807585       -0.2166755942        0.0318173188
 C        -10.0678779793        0.2641149132       -1.0673176151
 C         -8.3396510238        0.9814018877        0.5564090997
 C         -9.0382845850        2.0441691636        1.1125113414
 C         -8.4019115068        3.1875214910        1.5587050140
 C         -7.0282062818        3.2959153685        1.4189036796
 C         -6.3099114549        2.2551525756        0.8742160687
 C         -6.9437164827        1.0722160967        0.4693461430
 N         -6.1874575858        0.0351996387       -0.0479089219
 C         -4.7799734448        0.1416219529       -0.0475090589
 C         -4.0756245895        0.2109270224        1.1704241606
 C         -2.7143869709        0.2742512645        1.1839731421
 C         -1.9693007814        0.2971789122       -0.0361581821
 C         -0.6048416779        0.3352715138       -0.0259419423
 C          0.6313370150        0.3437218131       -0.0051812686
 C          1.9957015380        0.3192223284        0.0249008627
 C          2.7678848250        0.3067247216       -1.1779162161
 C          4.1282226038        0.2391364685       -1.1322452710
 C          4.8052987097        0.1475072269        0.0998866303
 N          6.2101570865        0.0289561615        0.0988848086
 C          6.8379244909       -1.0720297380        0.6576746776
 C          6.1056949032       -2.0190250002        1.3809641627
 C          6.7373381703       -3.0710799544        2.0087134486
 C          8.1116025352       -3.2021369737        1.9189426018
 C          8.8312407363       -2.3148467423        1.1362315453
 C          8.2202969888       -1.2594958658        0.4780324325
 C          8.9506170419       -0.4192039016       -0.5522426151
 C          8.7030070879       -1.0933763808       -1.9212333777
 C         10.4598187141       -0.3656501019       -0.3023268580
 C          8.3316856259        0.9610474536       -0.6182197671
 C          9.0432818792        2.0827130682       -1.0140494534
 C          8.4339295234        3.3173094373       -1.1613683662
 C          7.0805232465        3.4494149318       -0.9026752533
 C          6.3520816159        2.3536782821       -0.4941640168
 C          6.9602005471        1.1010261691       -0.3573317550
 C          4.0639123768        0.2076421596        1.2960453306
 C          2.7041844974        0.3019192692        1.2667758893
 C         -2.7033861837        0.2612068912       -1.2624395096
 C         -4.0636207697        0.1708275728       -1.2597474616
 C         -6.7814980776       -1.1145162404       -0.5398545835
 C         -5.9799642915       -2.1705257061       -0.9949367106
 C         -6.5400676897       -3.3172366963       -1.5120732554
 C         -7.9175932118       -3.4466031789       -1.5712911358
 C         -8.7127811343       -2.4297504795       -1.0766469352
 C         -8.1753295634       -1.2630489307       -0.5502567320
 H         -9.2015221098       -1.1975342238        1.9617798414
 H        -10.4677000831       -1.7070262397        0.8448957477
 H        -10.5732554337       -0.1373813170        1.6359006583
 H         -9.5054722096        0.7180599706       -1.8811031405
 H        -10.7631803165        1.0019676331       -0.6776141972
 H        -10.6421602639       -0.5661250709       -1.4681409816
 H        -10.1124892084        1.9850618699        1.1994276323
 H         -8.9750861347        3.9927256457        1.9916220058
 H         -6.5157172006        4.1940928073        1.7284379043
 H         -5.2441120855        2.3542238255        0.7463812182
 H         -4.6347662486        0.1844666577        2.0953715837
 H         -2.1721918261        0.2960732800        2.1174425048
 H          2.2479722056        0.3414362770       -2.1235949248
 H          4.7092719854        0.2263284993       -2.0441146014
 H          5.0333894283       -1.9338575109        1.4400386163
 H          6.1537750265       -3.7877752127        2.5664157482
 H          8.6194709282       -4.0102713713        2.4222750024
 H          9.8920696943       -2.4732783331        1.0356022626
 H          9.1860799174       -0.5226609005       -2.7114778662
 H          7.6375160954       -1.1456125825       -2.1338235919
 H          9.1032113110       -2.1049736200       -1.9187291554
 H         10.9578582825        0.1922654936       -1.0896073326
 H         10.6749547213        0.1028368983        0.6553398059
 H         10.8850942232       -1.3646143819       -0.3128692355
 H         10.0973844209        2.0080605377       -1.2242098910
 H          9.0160867609        4.1693777137       -1.4773612895
 H          6.5940475001        4.4073405511       -1.0069218933
 H          5.3039356614        2.4593685926       -0.2624957193
 H          4.5929631054        0.2148753388        2.2388361980
 H          2.1363889026        0.3692611240        2.1828663786
 H         -2.1552197574        0.3079493371       -2.1915290926
 H         -4.6151778749        0.1435258600       -2.1892722094
 H         -4.9074200377       -2.0884584319       -0.9286039811
 H         -5.8998476478       -4.1129566302       -1.8615812313
 H         -8.3686842996       -4.3378946369       -1.9792307997
 H         -9.7843449149       -2.5568018216       -1.0988884459
