53
 energy: -79.298514382334 gnorm: 0.000168342741 xtb: 6.7.1 (edcfbbe)
C            2.14728520008010        3.89540607668738       -0.80232084758471
C            2.06353895279081        3.51903908363300        0.53157826797077
C            1.85036806810789        2.19984244981734        0.86660055041647
C            1.74421274036325        1.22814274887963       -0.13548869683781
P            1.27546366567408       -0.45947255207381        0.32293279780424
C            2.86115542132056       -1.33466969664306        0.59298787564003
C            2.84701058114730       -2.72862093899055        0.59642574585900
C            4.00425666900682       -3.43009579847201        0.86651056757333
C            5.17323263033663       -2.74763447285186        1.17415019591051
C            5.17980709301159       -1.36175290270325        1.20894805177212
C            4.02629723870622       -0.65189944310284        0.93462334091387
C            0.55100073062453       -1.27428337386878       -1.09176227990524
C            0.99205371328500       -1.87463391959360       -2.23664615227866
S           -0.35094536719533       -2.27453920392505       -3.28429977196341
C           -1.50253717702275       -1.62196962518462       -2.14006150974396
C           -0.86393485229446       -1.13085374715113       -1.03695103841789
P           -1.29982551616417       -0.19811639649707        0.42264975082706
C           -1.44900988119770        1.55324705516935       -0.01130353149947
C           -1.56322933180170        1.95376926500702       -1.34589262681745
C           -1.52022992035458        3.29320859876875       -1.66629155270084
C           -1.34922786067501        4.24995091790376       -0.67368951916300
C           -1.22378888030015        3.85623760561366        0.65195032690499
C           -1.25936932833542        2.51958874451613        0.98352073646340
C           -3.00617472304380       -0.73507622024469        0.81469517590248
C           -3.97701858964140        0.16776483245467        1.24187271937889
C           -5.22889154952521       -0.29332473345719        1.60247782241272
C           -5.51082577921232       -1.65021621077019        1.56854666540315
C           -4.53348297862533       -2.55411692196021        1.17525958437487
C           -3.27938292629358       -2.10200377824892        0.81866128972656
C            1.81700138388767        1.61381998671429       -1.47723756052101
C            2.02458018917548        2.93709035761955       -1.80055932354271
H            2.30502876533947        4.93080413219049       -1.06347834944983
H            2.15905975252849        4.26381609302493        1.30859924613848
H            1.77581675761014        1.89775720002298        1.90296777654038
H            1.92656803846186       -3.24764168103263        0.36354410711812
H            3.99902801953018       -4.51021220085608        0.84395200608577
H            6.07628057323467       -3.29726356615788        1.39448720515779
H            6.08963536928398       -0.83244036781383        1.45290068264439
H            4.02789502771386        0.42903282743333        0.95134442575642
H            1.98779735634956       -2.13032845110947       -2.53778967813313
H           -2.54934375437819       -1.67050483965128       -2.36235980507970
H           -1.69146414693598        1.20647694924375       -2.11671738332578
H           -1.61779983047276        3.59992585230724       -2.69776169711393
H           -1.31179190289684        5.29707632727938       -0.93300264391529
H           -1.09112658716268        4.59985887102009        1.42458694755724
H           -1.15464963929963        2.20219513295844        2.01263668294338
H           -3.75402544957162        1.22551891687029        1.25763976838949
H           -5.98961181742829        0.40832574424508        1.91309706867202
H           -6.48932339886874       -2.00545794113627        1.85575698426115
H           -4.75272533802277       -3.61177593819776        1.15405974192766
H           -2.50530741774696       -2.79605847467546        0.51886376742232
H            1.71637062883610        0.86656977437023       -2.25217200131764
H            2.08960171961745        3.23034013621506       -2.83848645599559
