  53
        -79.29504604
 C          1.7711764579        4.0972783886       -0.4001852504
 C          1.6777036537        3.6539206258        0.9124737131
 C          1.5830286326        2.3065975422        1.1831025746
 C          1.6077689872        1.3754170544        0.1376718735
 P          1.2968707440       -0.3684655632        0.5069226500
 C          2.9503795011       -1.0974253701        0.7933729529
 C          3.0760080824       -2.4846271094        0.7254243390
 C          4.2866238716       -3.0829724806        1.0077194478
 C          5.3689119285       -2.3074232590        1.4017078598
 C          5.2346011035       -0.9316620906        1.5098476953
 C          4.0272972307       -0.3241126972        1.2231434469
 C          0.7068509322       -1.1797422351       -0.9720265599
 C          1.2467737104       -1.6769135019       -2.1236470847
 S         -0.0096339689       -2.1552530728       -3.2419385649
 C         -1.2610720345       -1.6760586188       -2.1183534187
 C         -0.7161682464       -1.1793184290       -0.9688122539
 P         -1.2983137386       -0.3648353064        0.5118828823
 C         -1.6011749756        1.3802342675        0.1422307020
 C         -1.7137300596        1.8243754959       -1.1791756952
 C         -1.7918620594        3.1739021059       -1.4449532355
 C         -1.7448271625        4.1001612133       -0.4104724522
 C         -1.6223174547        3.6643977613        0.9024149812
 C         -1.5374934812        2.3179732008        1.1800868383
 C         -2.9544879148       -1.0859146889        0.8020517515
 C         -4.0248834344       -0.3063502493        1.2366845538
 C         -5.2360848898       -0.9060616268        1.5234494352
 C         -5.3802339780       -2.2805393582        1.4114751699
 C         -4.3041781269       -3.0625332094        1.0134830360
 C         -3.0899004551       -2.4720001475        0.7301550728
 C          1.6896204521        1.8275468527       -1.1830986071
 C          1.7779759019        3.1778397955       -1.4417697016
 H          1.8364226630        5.1537973448       -0.6113353555
 H          1.6727940582        4.3682027897        1.7231756323
 H          1.5017719459        1.9519075321        2.2020590864
 H          2.2221507039       -3.0778264502        0.4257629728
 H          4.3909457463       -4.1553179464        0.9276922414
 H          6.3136714693       -2.7774008224        1.6316715072
 H          6.0766553902       -0.3304895752        1.8213413362
 H          3.9195014746        0.7489450032        1.2973909021
 H          2.2735262441       -1.8186921438       -2.3944255106
 H         -2.2889013105       -1.8176275176       -2.3851581840
 H         -1.7451934107        1.1016298156       -1.9827624163
 H         -1.8873106649        3.5130751455       -2.4665044793
 H         -1.8013779246        5.1560282025       -0.6272226782
 H         -1.5875096078        4.3841353884        1.7076848816
 H         -1.4357266155        1.9690177187        2.1993733916
 H         -3.9088624547        0.7657331313        1.3135930080
 H         -6.0733872409       -0.2998671809        1.8380175173
 H         -6.3275708347       -2.7445013947        1.6424240536
 H         -4.4159731109       -4.1339052488        0.9314734002
 H         -2.2407350490       -3.0705167895        0.4278162185
 H          1.6908729122        1.1104640785       -1.9922285961
 H          1.8515886448        3.5230636959       -2.4631067103
