53
 energy: -79.394899595602 gnorm: 0.000037295849 xtb: 6.7.1 (edcfbbe)
C            1.91536062248314        3.85028977855173       -0.21666533634506
C            2.20083179059646        3.36594704041183        1.04958728402390
C            2.05001948639047        2.01997269972308        1.32071781480791
C            1.62774754497083        1.14176501079006        0.32574483552100
P            1.44526480082449       -0.61166539447925        0.82582122524026
C            3.15983717385966       -1.20683811559477        0.54072728827089
C            3.35453789381511       -2.58064584640447        0.66857498107564
C            4.60828196963734       -3.13129696577917        0.48987849298105
C            5.68703117588283       -2.31161364212833        0.19684508359334
C            5.50333172297162       -0.94410219094445        0.08729999581413
C            4.24685943853007       -0.38916497701954        0.26128639425881
C            0.68125707659810       -1.32500004726345       -0.65745067676971
C            1.22679881479323       -1.77857666460401       -1.81522307023814
S            0.02666208420031       -2.40230020836221       -2.88526153638363
C           -1.22824233148238       -2.04199311282881       -1.75425736651499
C           -0.73794708684834       -1.48048399392272       -0.62048745273834
P           -1.52954315678277       -0.92533281219285        0.91902322020991
C           -1.61701262428242        0.86123810998443        0.50938543222034
C           -1.98638826614191        1.31556604536946       -0.75196829053502
C           -2.01172723733553        2.67114854964656       -1.01740161658390
C           -1.66809395639368        3.58109907938300       -0.02997473213346
C           -1.30392875776566        3.13390875479952        1.22791851695709
C           -1.27687611252410        1.77714117657022        1.49659288251472
C           -3.25703064671207       -1.43303443534974        0.57099995765630
C           -4.33000095950874       -0.55015166122293        0.58801824673837
C           -5.61749339157873       -1.01775629489948        0.39029797725115
C           -5.84814312291549       -2.36794937986221        0.18985403985262
C           -4.78586854587538       -3.25815062422100        0.20242420099779
C           -3.50021584146434       -2.79480881811028        0.40351563744951
C            1.34218204290524        1.63347513104877       -0.94049921854260
C            1.48534068054133        2.98354965962610       -1.20647830437607
H            2.02551680585728        4.90329105320524       -0.43066174292023
H            2.53515249893388        4.03990960188061        1.82517504849732
H            2.26089417900724        1.63273106321795        2.30916668793061
H            2.50783782584257       -3.21262489434877        0.90408581493320
H            4.74838271456516       -4.19858509549232        0.58287569912226
H            6.66937371750906       -2.73876688724468        0.05814912845756
H            6.34347777680673       -0.30248132394374       -0.13704306816064
H            4.11386474572309        0.67945987866163        0.17235031097816
H            2.25814009803888       -1.80013771540488       -2.10977750160493
H           -2.24207474197770       -2.28753946175466       -2.00444312157328
H           -2.25466140532718        0.60411859415199       -1.52156135533482
H           -2.29794875174787        3.02147518606793       -1.99887413461357
H           -1.68394821111062        4.63978396837455       -0.24379871819703
H           -1.03523213820173        3.84241684347773        1.99774967207546
H           -0.98731553154053        1.41596955975855        2.47385095417096
H           -4.15848295207915        0.50471518062859        0.75066533406050
H           -6.44532810325311       -0.32315678354012        0.39502670830079
H           -6.85424150859397       -2.72835541145238        0.03304376279287
H           -4.96312266171644       -4.31467715445350        0.06071406671433
H           -2.66834850298876       -3.48681057653293        0.42790798870695
H            1.00542733794325        0.96483160167943       -1.71966884116135
H            1.25980252694930        3.36019692239147       -2.19377659947304
