53
 energy: -79.298515049498 gnorm: 0.000071215650 xtb: 6.7.1 (edcfbbe)
C            1.77279698869887        4.09450065737208       -0.39952191913846
C            1.67521750188537        3.65023468820646        0.91231897031235
C            1.58106293139798        2.30237575626829        1.18165923056367
C            1.61070680172759        1.37258489715398        0.13572802196166
P            1.29602779506328       -0.37284880717161        0.50034586214853
C            2.95084182237961       -1.09966380820887        0.79519172501197
C            3.07905100140837       -2.48623586046198        0.72932110683093
C            4.29087633109557       -3.08180925250337        1.01396624821959
C            5.37159078522345       -2.30329184897638        1.40510827768770
C            5.23523876356582       -0.92759615080466        1.50854175702597
C            4.02648197429052       -0.32312126559153        1.21998116584507
C            0.70833795737533       -1.18535733885190       -0.97769968005409
C            1.24893017176197       -1.68221058575810       -2.12952197069358
S           -0.00804391264602       -2.15846720162085       -3.24958441928288
C           -1.26027227220207       -1.67839791099732       -2.12578400738588
C           -0.71482643904065       -1.18322898952873       -0.97544141642915
P           -1.29482900204741       -0.36757385949289        0.50413598516550
C           -1.60219846074755        1.37923270465679        0.14011125133420
C           -1.71134380566058        1.82725146845909       -1.17969083696347
C           -1.79333320320688        3.17763643117281       -1.44128830105449
C           -1.75380015954775        4.10000200619377       -0.40328829156061
C           -1.63355814041770        3.66025661766263        0.90827384949723
C           -1.54470938167444        2.31286101121788        1.18139530307100
C           -2.95294131003992       -1.08543153576376        0.80192355448960
C           -4.02146677961717       -0.30233558558932        1.23257969923509
C           -5.23396254733680       -0.89859860247518        1.52240590579912
C           -5.38087131784046       -2.27288044332698        1.41454505088011
C           -4.30709797416183       -3.05812569921695        1.01788689977466
C           -3.09158690769750       -2.47073270169853        0.73174164470874
C            1.69670810757210        1.82540181954257       -1.18406858095250
C            1.78416204443262        3.17616237927887       -1.44182439108853
H            1.83735224018203        5.15130391662133       -0.60957607379762
H            1.66644239972865        4.36382764997200        1.72366496568544
H            1.49680690069196        1.94683824831725        2.20015867601026
H            2.22598812569671       -3.08175926074713        0.43194011907593
H            4.39686106439303       -4.15426188111121        0.93809890640126
H            6.31702122187414       -2.77087463584664        1.63675807518274
H            6.07626889079530       -0.32370544896496        1.81753915889983
H            3.91713203449075        0.75012572918465        1.29004381662650
H            2.27560828763411       -1.82437115452758       -2.40023982409286
H           -2.28812809719187       -1.81759957610433       -2.39358109743597
H           -1.73741673533588        1.10715168729370       -1.98580410712832
H           -1.88680389261075        3.52007116551238       -2.46185339851484
H           -1.81429466713388        5.15643059496859       -0.61641367267612
H           -1.60305854162164        4.37707901818905        1.71621169526368
H           -1.44323240773340        1.96064366552788        2.19943484922073
H           -3.90343254784979        0.76978587819659        1.30632188374873
H           -6.06955083799709       -0.28951154845396        1.83591786109516
H           -6.32915452785473       -2.73417607454405        1.64716971127948
H           -4.42134554818841       -4.12949580531265        0.93873135769693
H           -2.24392801296182       -3.07163921065602        0.42985966877182
H            1.70074440631373        1.10870369381162       -1.99359198557765
H            1.85961348715308        3.52214505116994       -2.46266161591455
