88
 energy: -148.438607533387 gnorm: 0.000108663202 xtb: 6.7.1 (edcfbbe)
O            8.83525112127136       -2.70497147664850        0.46056782327653
C            8.06510282780994       -1.85008487720218        0.05645263734180
C            8.56935478377966       -0.54486821878058       -0.45065290602913
C            8.01704977286250        0.07112800489552       -1.57102361919290
C            8.54407750240210        1.26176312528696       -2.03714078071755
C            9.61806802760788        1.85070132506818       -1.38931340175038
C           10.18063977769503        1.23578002736631       -0.28247513138579
C            9.66695731096823        0.03807939952393        0.17747664717278
C            6.60566386601196       -2.06154201454679        0.04465488458752
C            6.12822616996126       -3.37860533520920        0.04472770652836
C            4.78122006271059       -3.64598814746875        0.03697375311454
C            3.84387304530118       -2.60619065565052        0.05667819380622
N            2.53560632289052       -2.82768301590883        0.04599317039637
C            1.65728883248799       -1.82902699046271        0.08498834247546
C            0.25466382994715       -2.08737533131667        0.07631661458621
C           -0.20025934627982       -3.41490405347171       -0.01191198619127
C           -1.53641041419349       -3.70357588939364       -0.05620078197186
C           -2.46985156086010       -2.65814574155299        0.01398019757550
N           -3.85378189873118       -2.94195827721673       -0.04850182936747
C           -4.63098405209127       -2.45758933297533       -1.09951078617734
C           -4.09915303748448       -1.69243504981461       -2.13239054285485
C           -4.90652781576532       -1.22070900966674       -3.15433454462500
C           -6.25663817473944       -1.51290702327585       -3.17208242895208
C           -6.79799836371505       -2.30089869135858       -2.16850677673597
C           -5.99707217547435       -2.77586501912930       -1.14547598580902
O           -6.59748220908961       -3.57296965795047       -0.20651801244434
C           -5.82120417855837       -4.03602689978010        0.82363690276795
C           -6.44323773951941       -4.82135531321952        1.77724345548839
C           -5.72668789415462       -5.29929629407298        2.86345447763081
C           -4.39161819131792       -4.96988555864449        2.99856553521484
C           -3.76238294696626       -4.18523222100149        2.04603790298427
C           -4.45748839068570       -3.72557102794095        0.93256067127922
C           -2.04230203906409       -1.35174683194614        0.12696520177127
C           -0.68068824432337       -1.02625660497541        0.14271637952323
C           -0.20527870621115        0.33447489215452        0.19850195131944
C           -1.06929586871461        1.43551665514491        0.25250025743951
C           -0.59032551934461        2.72886171971329        0.24395848308521
N           -1.49616752088562        3.81412286750216        0.25390814608191
C           -2.39937553019891        3.99619335187964       -0.79274547987634
C           -2.45377486126027        3.14436149974487       -1.89106933739707
C           -3.37277635532123        3.35305900202774       -2.90639338537219
C           -4.24614661362558        4.42191986645522       -2.85175233684084
C           -4.18421016187482        5.30011183087178       -1.78116979382362
C           -3.26837856281404        5.09770444654624       -0.76436491066191
O           -3.24652223059009        6.02512906537151        0.24419301493060
C           -2.36080028765753        5.82601191389786        1.27095066024793
C           -2.36698763753590        6.75391005096683        2.29660734711140
C           -1.51979655078587        6.59940484819602        3.38295134341975
C           -0.68324348499017        5.50157727220115        3.44489640479696
C           -0.67101140284035        4.56971778757529        2.41989606234150
C           -1.48922709651708        4.72753693471986        1.30649488931716
C            0.79095667261083        2.97047007593150        0.21064510624960
C            1.65715918180969        1.91107633993726        0.19096734253161
C            1.18645353515177        0.58799039148929        0.17655461287795
C            2.12881605597780       -0.48750717259371        0.13028904713276
N            3.43045123196413       -0.24925600657433        0.12268015588858
C            4.32654763543439       -1.24318109805062        0.09000260863108
C            5.69505761433491       -1.00583375947779        0.07937693034120
H            7.19161431247566       -0.39509146752827       -2.08928439987475
H            8.11642353279431        1.73241861005353       -2.91057221569405
H           10.02171452202240        2.78438859892220       -1.75307288009863
H           11.02441599629305        1.68843609305763        0.21740510343604
H           10.10077173989029       -0.46056522081172        1.03152793979943
H            6.85056616903057       -4.18093615867557        0.03929231881164
H            4.41203627848736       -4.65963630415377        0.02028198412444
H            0.54091061997601       -4.19726139580658       -0.06363071749506
H           -1.88373580994042       -4.72118390471757       -0.15220260025016
H           -3.04362297423614       -1.47189649257025       -2.14259152648392
H           -4.46744311857777       -0.62478364455114       -3.93935622358846
H           -6.88875233944021       -1.14338801903137       -3.96371574820587
H           -7.84320315831209       -2.56533514279954       -2.16234071263647
H           -7.49091131343435       -5.04308392686228        1.65215161859077
H           -6.21773839339988       -5.91451723238164        3.60048042327905
H           -3.82772000724503       -5.31889225986832        3.84963068540040
H           -2.72389438468477       -3.92205356226677        2.17010448713184
H           -2.79220789833068       -0.57925763829393        0.19372306787350
H           -2.13754767343236        1.29283067826059        0.29575766584601
H           -1.76567634840583        2.31674491564229       -1.95789217624699
H           -3.39619140007323        2.67212926819075       -3.74302079451324
H           -4.96595732900097        4.58455602814856       -3.63801605308249
H           -4.83638458999574        6.15623040743021       -1.71673772515890
H           -3.04652356024613        7.58803351091046        2.22664689095301
H           -1.52737892761854        7.32949563393332        4.17651484770238
H           -0.03355779762645        5.35864810124533        4.29436567735948
H           -0.02472226939090        3.70894441835621        2.48702635956468
H            1.15358039623384        3.98709159884617        0.19478498557852
H            2.72490310884704        2.06504018037332        0.16797747711193
H            6.03210568004795        0.01802339312067        0.12930632444129
