88
 energy: -148.476567688386 gnorm: 0.000033734025 xtb: 6.7.1 (edcfbbe)
O            8.80197013468428       -2.55264793509014        0.82207541289416
C            8.06620995662938       -1.77014517152764        0.25479701300021
C            8.58788848654121       -0.55149830651206       -0.41284647443479
C            7.99884610155305       -0.02723298394450       -1.56178248895305
C            8.54144352810701        1.09107634196300       -2.16769992334945
C            9.66663100930746        1.69830314732523       -1.63315956807682
C           10.26456028702736        1.17446966018181       -0.49788656988143
C            9.73490885685309        0.04903617308390        0.10320487827769
C            6.59613309809108       -1.99229190305255        0.20208365971826
C            6.12981670898960       -3.32926888721162        0.20014344617208
C            4.79692701372880       -3.61162639436035        0.17634087478714
C            3.85566966664307       -2.55883126176951        0.17414779865375
N            2.54419410622892       -2.83269436918206        0.14765538253975
C            1.69858456931048       -1.81924135769447        0.16158847670581
C            0.28105324824047       -2.08937696345187        0.12448665402553
C           -0.16748932124069       -3.41058146415260        0.02079436147253
C           -1.50732810363286       -3.70070341711085       -0.04657203372853
C           -2.43955075100222       -2.65957250520572        0.01144990232230
N           -3.81707369946001       -2.93182009999394       -0.07562286792221
C           -4.59395479794730       -2.36343232360580       -1.09170994976230
C           -4.05436384560937       -1.55087856075532       -2.08191898924814
C           -4.85770696439352       -0.99963553865618       -3.06808889713883
C           -6.21225401285679       -1.26139511392418       -3.09331770556608
C           -6.76029241638735       -2.10412248678231       -2.13845441126031
C           -5.96282594231655       -2.65817913383417       -1.15383004405700
O           -6.57470032693990       -3.51319695894343       -0.27287359501695
C           -5.80333416387910       -4.05363089550763        0.72472554485624
C           -6.44063034717345       -4.88634073310067        1.62600631421488
C           -5.73811421071144       -5.43956251409465        2.68580593501773
C           -4.40233842306376       -5.13299573627299        2.84876783458518
C           -3.75836507844033       -4.30065500002900        1.94620859586330
C           -4.43719919900984       -3.77167122366262        0.85533775079203
C           -2.00506620865585       -1.34970105513046        0.13762720873185
C           -0.64723695633774       -1.03043518809957        0.17773843288846
C           -0.17608021541627        0.34616632303811        0.23623599913635
C           -1.05378398817745        1.43068096258512        0.27305468481738
C           -0.59384481530316        2.73757950050361        0.25365045949442
N           -1.51428673831344        3.80195385139609        0.24705689712162
C           -2.47155477329059        3.91315948645899       -0.76794112785957
C           -2.54212538197597        3.02244361579818       -1.83258408876414
C           -3.51004453759228        3.16114880803824       -2.81537070657221
C           -4.41588279206728        4.20060487441449       -2.76226332371237
C           -4.33368779687988        5.12268364314101       -1.73005797008154
C           -3.36912409712592        4.98953498088337       -0.74816840444079
O           -3.33026239192971        5.96595874230348        0.21465634010519
C           -2.39805585907309        5.83451368863867        1.21268210170208
C           -2.39620413031337        6.80455527819966        2.19795136842234
C           -1.51028235833520        6.72078315935071        3.26144100133742
C           -0.64608176395252        5.64779259871301        3.34216061858255
C           -0.64265265599753        4.67387520070287        2.35539483875087
C           -1.49490486181891        4.76458143924919        1.26177451845317
C            0.78109705117070        2.99195619907037        0.22560470868732
C            1.66212617403045        1.93924334007296        0.22400769840954
C            1.20665712379515        0.61663279893445        0.22453035964693
C            2.16178158836938       -0.46673848601006        0.20528050828631
N            3.45032950686434       -0.18535743527248        0.22511629243577
C            4.31831097977368       -1.20866852567474        0.20813487687020
C            5.70275635358794       -0.94816265143991        0.21911765441694
H            7.13323617094850       -0.50853286956577       -1.99291169898347
H            8.08561855216076        1.49087631634015       -3.06155008776285
H           10.08196349888129        2.57559764559594       -2.10685615979124
H           11.14676871072725        1.64172425631599       -0.08618511642229
H           10.19145646444703       -0.37912042458302        0.98320391200652
H            6.86794074042945       -4.11741545474163        0.21508820535502
H            4.42820452164451       -4.62545426197844        0.16542334085182
H            0.57516865044637       -4.19116414136675       -0.02493898918645
H           -1.84946061112120       -4.71862306964157       -0.15673735031079
H           -2.99405077208327       -1.35389092124255       -2.09408988545721
H           -4.40918647938561       -0.36730033766953       -3.81855945544201
H           -6.84292871775525       -0.82968949996302       -3.85409474657797
H           -7.80954699894374       -2.35227441488102       -2.14280199936500
H           -7.49082087792016       -5.08412586880318        1.48268985116316
H           -6.24199522838647       -6.09197620859507        3.38112533854459
H           -3.84722693963278       -5.53493904880760        3.68223695953801
H           -2.71930540731956       -4.05479480990227        2.09892988367500
H           -2.75540524086021       -0.57785116452143        0.19988063799573
H           -2.11995488994242        1.27604355969290        0.31702027371281
H           -1.82794919867243        2.21753382025252       -1.90547961151883
H           -3.54329145768246        2.44820934257182       -3.62455098310733
H           -5.17493980753148        4.30947636261437       -3.52047099186238
H           -5.00786708942667        5.96201573451907       -1.67036949178503
H           -3.10199444376947        7.61556154141670        2.11612433371043
H           -1.51235581153249        7.48452037976851        4.02283981198215
H            0.03255062732328        5.55423021463260        4.17590318782049
H            0.02512310618877        3.83140486714296        2.44349508641754
H            1.13516492390550        4.01137426095148        0.19646249499481
H            2.72771553096713        2.10413307081616        0.20440303700139
H            6.02740392817206        0.08030378624364        0.26446832410565
