88
 energy: -148.438619566302 gnorm: 0.000169339680 xtb: 6.7.1 (edcfbbe)
O            8.79618701427124       -2.79357204759615        0.54172745557162
C            8.04073079666294       -1.92455373683800        0.13988232338988
C            8.56589372469762       -0.61743188890598       -0.34058856171222
C            8.04069003017677        0.01728457732655       -1.46353376883479
C            8.58576629116844        1.20975650983569       -1.90344959348900
C            9.65101356516236        1.78186439740429       -1.22674740680475
C           10.18693609925430        1.14810944715097       -0.11734190497488
C            9.65527103571243       -0.05149139975900        0.31658144107961
C            6.57948894829665       -2.11988392327555        0.10536127268007
C            6.08825146764404       -3.43189411653214        0.09074764677854
C            4.73885107488279       -3.68520964497267        0.06449175029683
C            3.81218347227353       -2.63572401558880        0.07819292348832
N            2.50189485208395       -2.84385151969507        0.05282172924503
C            1.63378367273259       -1.83603793917483        0.08488923404724
C            0.22867131229431       -2.08022429909221        0.06853261214935
C           -0.23762001837187       -3.40475388714775       -0.00334827905484
C           -1.57624287119000       -3.68212222517378       -0.04213832696234
C           -2.49971392236015       -2.62705650106914        0.00987979601859
N           -3.88642711463519       -2.90270335043932       -0.04118589781363
C           -4.65925604255488       -2.46287815601999       -1.11382069086139
C           -4.12165296734138       -1.74335746665097       -2.17587355662565
C           -4.92374553809031       -1.31844630649862       -3.22228183043054
C           -6.27364844960225       -1.61222861027544       -3.23395272485970
C           -6.82118088807609       -2.35247778275788       -2.19773902947518
C           -6.02580385067804       -2.78047824165255       -1.15008157117153
O           -6.63135493880408       -3.53066587945124       -0.17621943592552
C           -5.85889124344226       -3.94886239541940        0.87586132967544
C           -6.48522200805990       -4.68649409220006        1.86405371188629
C           -5.77107398070605       -5.11857984894694        2.97097442854322
C           -4.43360323541857       -4.79279144759390        3.09049917380488
C           -3.79996095409313       -4.05561532536126        2.10358756254798
C           -4.49370873105015       -3.64054724354925        0.97197433432171
C           -2.06154851451884       -1.32259104167416        0.09927628994920
C           -0.69682643908026       -1.00937064451207        0.11749879134078
C           -0.20805570374526        0.34682453200910        0.17065064591799
C           -1.06073191538292        1.45759769318966        0.20944963791186
C           -0.56656653661086        2.74498880275807        0.21971985952303
N           -1.45935779962295        3.84189368337438        0.22363205546612
C           -2.31865870361322        4.06318313083196       -0.85120964955362
C           -2.34404413406479        3.23682985095070       -1.96968801646482
C           -3.21684313297394        3.48642559989702       -3.01611855827024
C           -4.07204302097967        4.57040302010334       -2.97127584075513
C           -4.03996110841338        5.42136767689194       -1.87751078837428
C           -3.17039352626964        5.17826307267476       -0.82959070820087
O           -3.17566214971978        6.07866153607627        0.20353860217945
C           -2.33099634220988        5.84201027837215        1.25669411051101
C           -2.36164764879135        6.74451068123787        2.30428622348635
C           -1.55493311386399        6.55219622019355        3.41523660713038
C           -0.73323017904362        5.44325861644244        3.47833173608694
C           -0.69669586141288        4.53641181573638        2.43168989071683
C           -1.47563324607482        4.73093568508135        1.29622191107094
C            0.81743436028412        2.97178194187515        0.21503260199556
C            1.67199225660286        1.90294020272272        0.20139825852961
C            1.18664530110576        0.58545080454441        0.17199863825219
C            2.11855929081518       -0.49961555861972        0.13637265254668
N            3.42254963038059       -0.27456339427844        0.14646977466976
C            4.30853657486036       -1.27800949203735        0.12312432515668
C            5.67943356712496       -1.05488635204986        0.13315596268211
H            7.22224819074431       -0.43586036206521       -2.00401283681278
H            8.17902023904661        1.69505984699479       -2.77884378778667
H           10.06869871732082        2.71713840812495       -1.56999015002084
H           11.02398347472082        1.58762584709240        0.40507261673405
H           10.06832619617284       -0.56432547902969        1.17252388416282
H            6.80236232866195       -4.24159104288284        0.08998804229561
H            4.35938936542666       -4.69484926759683        0.03780652312535
H            0.49684735455919       -4.19412987336752       -0.04230202508289
H           -1.93359015734308       -4.69793355550933       -0.11833702624405
H           -3.06615471784266       -1.52241368801008       -2.18836697724285
H           -4.48095622115865       -0.75800066433607       -4.03101430957013
H           -6.90133563080408       -1.28005826981938       -4.04542530782896
H           -7.86680403943569       -2.61502394372564       -2.18470902004755
H           -7.53406517281622       -4.90817571660009        1.74911142819266
H           -6.26575255718580       -5.69630930008858        3.73541532281599
H           -3.87136645406987       -5.10747975250689        3.95592779536251
H           -2.75924830129191       -3.79487945592909        2.21388231105267
H           -2.80499482488585       -0.54262693888655        0.15005585959721
H           -2.13134490363006        1.32740373639457        0.22737385234280
H           -1.66930146747688        2.39746164911887       -2.02650106523288
H           -3.21839966441142        2.82580929380097       -3.86922060936777
H           -4.75514585153465        4.76548842999249       -3.78251887653733
H           -4.68006219089358        6.28695591435648       -1.81868974476065
H           -3.02771631662927        7.58920292212446        2.23163792077422
H           -1.58189323575536        7.26237635059087        4.22625815674190
H           -0.11450993554744        5.27201445350310        4.34549978146483
H           -0.06223754950662        3.66678174901224        2.49825110386298
H            1.19090632447208        3.98458918227442        0.21615273809403
H            2.74165816644380        2.04470922617121        0.19741137762104
H            6.02616816270079       -0.03482063983226        0.19317516641003
