94
 energy: -145.779632648477 gnorm: 0.000100463969 xtb: 6.7.1 (edcfbbe)
C            1.87052014373251       -0.03375530628421       -3.55500082398416
C            2.73775437372744        0.64044929768019       -2.57246928773085
N            3.86128930184630        1.22552506583448       -2.83967922413175
C            4.29640371937157        1.81028713458391       -1.67609795269014
C            5.43093273543378        2.55676667493550       -1.40925878618836
C            5.58067562837349        3.06269123662969       -0.12680665337413
C            4.63860929390293        2.82177723639730        0.87007377757087
C            3.50207334043730        2.07063468894960        0.62479702330829
C            3.34136823590268        1.57674809546436       -0.65852940762910
N            2.36785654360758        0.79157872304698       -1.23712838099165
C            1.19127184522853        0.40088034661233       -0.62456781473930
C            0.40583359168741        1.33733464064301        0.01371615074887
C           -0.78548770805597        1.01700847907644        0.65415743278503
S           -1.98348165504950        2.34494841024054        0.78375481167426
O           -1.57819038698597        3.36503379864762       -0.14860206803217
O           -2.09985495275603        2.74879934970041        2.16687927589260
C           -3.56088498924579        1.67246587934268        0.26264275042909
C           -4.61896638597493        1.60485326201427        1.14613868690296
C           -5.83712553228605        1.11678247282505        0.71018858960565
C           -6.01810359239423        0.68984802489640       -0.60392195966761
C           -7.38922477510650        0.25564410283709       -1.09645762141174
C           -8.18866538501067       -0.44103457228505        0.01161605169409
C           -7.29032455271274       -0.70479343459273       -2.28709628546409
C           -8.13343353674856        1.52638784127198       -1.53559146604620
C           -4.92674093182800        0.75916478591985       -1.46851198259685
C           -3.70394111951912        1.24483518716422       -1.04190173982034
C           -1.20174654125834       -0.37693432869072        0.68106125002136
N           -2.37588796968856       -0.76856762311097        1.29584147768381
C           -2.75492699813809       -0.59363972402932        2.62617098301441
C           -1.89999350743518        0.10810931177961        3.60009555040027
N           -3.87456864211320       -1.18350388541879        2.89910248169521
C           -4.29769294988553       -1.79594241891334        1.74529827922372
C           -5.42352701345140       -2.55875509005203        1.48848573874119
C           -5.56101928574180       -3.09403322675983        0.21642596204889
C           -4.61620929501229       -2.86454578016192       -0.78037371870107
C           -3.48916720355539       -2.09566879222639       -0.54568419580902
C           -3.33941221382685       -1.57407197253675        0.72804579998802
C           -0.41504726066970       -1.31332763211692        0.04294341621998
C            0.77285696371983       -0.99141221017704       -0.60066716199122
S            1.95528437183956       -2.32600260935781       -0.77710529466268
O            2.03959974556230       -2.70468436153483       -2.16975139525510
O            1.55815923913526       -3.35932875281409        0.14407861715281
C            3.54940349690249       -1.67931332048970       -0.27558315105175
C            4.59088913884655       -1.60920998760307       -1.17842456173154
C            5.82314778236262       -1.14328695285192       -0.75832886211905
C            6.03492628698077       -0.74139516144089        0.55907179929787
C            7.42073242455455       -0.33192185738656        1.03121166568399
C            8.16039446982620       -1.61931613198287        1.42744699644203
C            7.35745071773726        0.60404522437447        2.24355117949943
C            8.20384814114796        0.37979267247509       -0.07896983833336
C            4.96001774753946       -0.81304626057093        1.44379840667287
C            3.72327352981641       -1.27668377546788        1.03313518885857
H            0.85748059856122        0.36217933034439       -3.49345657433795
H            2.27222652428891        0.13000904111768       -4.54997083483099
H            1.83042627490731       -1.10535497913074       -3.35178173182828
H            6.16241790677551        2.73779221236391       -2.18019801870752
H            6.44809980726670        3.66220754561251        0.10690619680645
H            4.78990841145997        3.24169465024837        1.85302870554258
H            2.76471280798730        1.89558333354956        1.39263888620532
H            0.65695804136608        2.38435119974736       -0.07164309481020
H           -4.47904722477853        1.94680615208767        2.15960572957252
H           -6.65301649500587        1.08259826747031        1.41254215325838
H           -7.59893496430513       -1.23558745846889        0.46131757714581
H           -8.49035391085521        0.25611531374874        0.78794801664043
H           -9.09413812610227       -0.87483356526098       -0.40660126661867
H           -6.63715950671204       -1.53973310093128       -2.04714358947487
H           -6.91613802272097       -0.20428754599879       -3.17590224806806
H           -8.27721931420082       -1.09527723106264       -2.52479959202516
H           -8.23229216492895        2.21883996125293       -0.70294996970790
H           -7.59223711725102        2.02923488109597       -2.33386459012583
H           -9.12747742089150        1.27178651601778       -1.89614812412363
H           -5.02230294584493        0.44301287308951       -2.49389642475665
H           -2.86312332354851        1.31516669881987       -1.71543245146596
H           -2.30353659114746       -0.04399091702600        4.59618996531819
H           -0.88156116782024       -0.27511569447823        3.54892953910417
H           -1.87353527476649        1.17662404057988        3.37913205003030
H           -6.15794463911079       -2.72977415117840        2.25889280689492
H           -6.42081052791468       -3.70760583109544       -0.00883011634964
H           -4.75713716397986       -3.30764922009225       -1.75465126468447
H           -2.75109520614011       -1.92802946070988       -1.31442747749175
H           -0.66292683353585       -2.36091589135144        0.13091106406539
H            4.42713126165742       -1.93203052294604       -2.19457288818895
H            6.62551761825829       -1.10656382004000       -1.47596612299788
H            7.63086674319524       -2.13343502810630        2.22636966860884
H            9.16455195205467       -1.38272249131620        1.77188409219486
H            8.23412102533393       -2.29488958348964        0.57849645247453
H            6.70803280786741        1.45044072199840        2.03548269358658
H            8.35327219896273        0.97945878640977        2.46793271840881
H            6.99722163523473        0.08846122179966        3.12951762971447
H            9.12301827333214        0.79463307760263        0.32846360102525
H            8.48071170784207       -0.30356012468329       -0.87651612698073
H            7.61345447761730        1.19013220416887       -0.49850603272816
H            5.07944300436742       -0.51605561236670        2.47238838750524
H            2.89509040561966       -1.34899772704819        1.72192727456496
