92
 energy: -130.944744416345 gnorm: 0.000048276650 xtb: 6.7.1 (edcfbbe)
C           -9.27775798016751       -2.11424757853952       -1.55874152348939
C           -7.97596085789065       -1.48932572979384       -1.15565140564892
C           -6.79322154638916       -1.83828806233783       -1.79070284235739
C           -5.57670520091343       -1.28851745291682       -1.41592122692252
C           -4.34069308946531       -1.73474165410101       -2.14615483074906
C           -5.51282588197547       -0.34589165078849       -0.37540119327570
B           -4.12595058224705        0.31202254798026       -0.00787671412722
C           -3.93700488827890        1.87856775348419       -0.05370358919376
C           -4.22558704638201        2.64153117503430       -1.19744296231793
C           -4.63966008187722        1.97740725974851       -2.47861186810467
C           -4.09058897304022        4.02123824181432       -1.17443614272648
C           -3.68160258572539        4.69363896936754       -0.03154198399756
C           -3.57013239005046        6.18868942795789       -0.01913729421602
C           -3.40259692809857        3.94246460498533        1.09908870710167
C           -3.52079486592178        2.55986428660660        1.10246611292339
C           -3.18573651597493        1.82717407446493        2.37187653914341
N           -3.02905648292301       -0.52007131169868        0.37731454921010
C           -3.10103498642263       -1.77759550873428        0.98240646340019
C           -4.21451021013318       -2.50193056545818        1.38217390201360
C           -4.01632679345972       -3.72465056362792        1.99907425032086
C           -2.73902275240438       -4.22212598603188        2.23807059945455
C           -1.62289532910567       -3.49572066210921        1.87084634150440
C           -1.80480699233748       -2.27021949471795        1.24597693317593
C           -0.88476221624711       -1.27780756204866        0.75742192571531
C            0.49865554020880       -1.22496949643489        0.71099195898414
C            1.11773745366348       -0.12111519609382        0.13644044872582
C            2.58539616690372       -0.03785843516001        0.07394949663303
C            3.23337906985874        1.18301236079226        0.31092435131796
C            4.60689105459616        1.30668604496032        0.26745821139511
C            5.35610184039969        0.17270214146339       -0.01453756944213
C            4.72242445080699       -1.06412649248755       -0.27551116435231
C            3.34050807227911       -1.16506004443219       -0.22535708115845
C            5.76893180807548       -2.00332484017789       -0.57020742600800
C            5.77964799835113       -3.35787629171946       -0.87742578297858
C            6.99456225074130       -3.98029143228719       -1.08535207034402
C            8.18992265979535       -3.27184559106156       -0.97730489628401
C            8.20512866764730       -1.92409405471875       -0.67202371232885
C            6.98611772320075       -1.28799045384406       -0.48234391788001
N            6.72198690850400        0.02456036209152       -0.14514432500124
C            7.67867710995736        1.03868575332037        0.02396471868543
C            8.62855996398309        1.27487116197152       -0.96564263307881
C            9.57147027685575        2.27193879461901       -0.79361394574678
C            9.56834179506013        3.04616424423577        0.35521125033969
C            8.62033739195407        2.81539033145051        1.33868079949571
C            7.68024236622788        1.81332750547448        1.18035097326947
C            0.32468401637608        0.90201628924143       -0.39772576203145
C           -1.05566923704589        0.86139654455384       -0.36129952792995
C           -1.67071307317424       -0.22561378810439        0.24254932088291
C           -6.71100671936309        0.01128139038210        0.26278336304864
C           -6.70904439138833        0.98590761353860        1.40458786641969
C           -7.91259107900137       -0.56302902948169       -0.12574145543945
H           -9.39126777350861       -3.08470909554556       -1.07309359284646
H           -9.31383665251187       -2.27290026820515       -2.63481153170303
H          -10.11722142535560       -1.48816009399101       -1.26467633409770
H           -6.81957144842930       -2.55715911077320       -2.59874814308729
H           -3.60887438049170       -0.93545765731608       -2.22302799846649
H           -4.59308754168792       -2.07741433703615       -3.14787912725376
H           -3.87610404898607       -2.56647885820846       -1.61438867809457
H           -4.94257054530857        2.71818198205542       -3.21524891477872
H           -5.46669655580720        1.29265018023891       -2.30776779460071
H           -3.81132383516912        1.40367007018586       -2.89436480768997
H           -4.31242931903738        4.58903027104774       -2.06821549204718
H           -4.55560639727497        6.63445864933823        0.12397632081763
H           -3.17243328911585        6.55469573934331       -0.96389955023997
H           -2.92527100101331        6.52392267845849        0.79011467457479
H           -3.08437503671989        4.44413169134972        2.00329399484612
H           -3.77950274463738        0.92454991039084        2.48480331386830
H           -3.35419825225727        2.46747856505025        3.23583122559564
H           -2.13308243293581        1.54018638039878        2.36801108409435
H           -5.21240325919476       -2.13138888350762        1.21599529669212
H           -4.87570578535874       -4.30302413089136        2.30616313286203
H           -2.62313807979258       -5.18065570023322        2.72271295754812
H           -0.62813920066343       -3.86718978613686        2.06790337253677
H            1.08736527827251       -2.02750914994555        1.12961748573847
H            2.63676951656180        2.05099415096752        0.55061504991660
H            5.08014609434855        2.26129290336132        0.44228071147191
H            2.85692692692414       -2.10541288736757       -0.44395439890127
H            4.85416062809499       -3.91011248002077       -0.94729680627813
H            7.02439474429472       -5.03278981629313       -1.32711296119418
H            9.12599647177465       -3.78881317263396       -1.13169406147248
H            9.13732149055304       -1.38821396766823       -0.57412471140837
H            8.61459300488760        0.68278653473620       -1.86883312179581
H           10.30618393183656        2.45038026929591       -1.56503839980387
H           10.30299672914237        3.82692607425762        0.48387592962693
H            8.61653412345500        3.41341727148095        2.23821515574694
H            6.95213866931894        1.61740892584999        1.95352552347279
H            0.80817999258786        1.73998188577269       -0.87835120659709
H           -1.63280204945152        1.66112350713044       -0.79545041311891
H           -6.20569431991663        1.90743100814383        1.12206987888526
H           -6.18138283471207        0.56690340390503        2.26117125924687
H           -7.72546899757009        1.22056611659669        1.71262356561413
H           -8.82289764698386       -0.27820678648090        0.38478554993366
