92
 energy: -130.844462709188 gnorm: 0.000047808318 xtb: 6.7.1 (edcfbbe)
C           -9.20909823854628       -1.90382975976856       -1.98773256882558
C           -7.91827773616262       -1.34899994648902       -1.46396964876256
C           -6.70111459777455       -1.68069438900691       -2.04010934604348
C           -5.50693394049070       -1.15289177151247       -1.57503741795802
C           -4.23765278317830       -1.54801429044164       -2.27689913903805
C           -5.49406873625593       -0.26377856020869       -0.48251851869896
B           -4.15202975581107        0.33459911894300        0.06358615033205
C           -3.96010760443194        1.86635649260089        0.33150997068333
C           -4.35474707011814        2.83300114754635       -0.61896922308255
C           -4.97553466307522        2.42209660051039       -1.92376481013980
C           -4.14281647601751        4.17918160827682       -0.38177751758267
C           -3.55689576415542        4.63189092853169        0.79526440386208
C           -3.33109237798309        6.09693510515979        1.02062928100272
C           -3.18994349398496        3.68689634233193        1.74134924912548
C           -3.38784779031014        2.33095610456935        1.53284096814369
C           -2.98806614648289        1.38529737025190        2.63079917399900
N           -3.03371738316821       -0.55594620020486        0.32052987486032
C           -3.11393762833041       -1.85548946215696        0.82682295315581
C           -4.23520382267338       -2.57497301369622        1.20170334403591
C           -4.05479440915170       -3.85875895059518        1.69994589216171
C           -2.78732397021776       -4.40962679261767        1.83570626462916
C           -1.65750533050170       -3.68571059994560        1.48768870617663
C           -1.81957739960068       -2.40278278738210        0.98943138928669
C           -0.89471263364559       -1.38837108045138        0.55449156616703
C            0.46931094152413       -1.33217811686795        0.49007319936658
C            1.11581164818662       -0.15913034817689        0.01541199446760
C            2.53647719389005       -0.06170870463023       -0.03743260414968
C            3.18988280681016        1.20985272131596       -0.09757796438493
C            4.54843417138817        1.34749287557694       -0.16337613710766
C            5.33686165145744        0.19068705180074       -0.19438949817804
C            4.72592594243530       -1.09220829796778       -0.09635125473483
C            3.36281210554984       -1.21955014476944       -0.01670185624473
C            5.80600474839216       -2.04906381643478       -0.09712816785739
C            5.85146988907424       -3.43241286371894       -0.03910145509429
C            7.08775116284933       -4.05830765134117       -0.08256931004272
C            8.25925512493473       -3.31907451391812       -0.19781761272829
C            8.23740076794754       -1.93456269086958       -0.25793714485036
C            7.00447950551327       -1.30364319927991       -0.18709345037322
N            6.69992613018266        0.04713962554604       -0.24627063557325
C            7.62828119090572        1.08849416859308       -0.37317291099688
C            7.45281967824250        2.06588459258324       -1.35214668057122
C            8.36732363193602        3.09484268253676       -1.47044882989775
C            9.46379076318687        3.15868538684127       -0.62380227480946
C            9.64015049637537        2.18650558629682        0.34909071683725
C            8.72849633345847        1.15648657937394        0.48082152596227
C            0.27516861349025        0.92049859157876       -0.42917319301971
C           -1.08704585793380        0.86811023882906       -0.37963000665870
C           -1.70665715024715       -0.27522756210198        0.15077561108069
C           -6.73499621634578        0.08279752964589        0.09187024850678
C           -6.80436853766725        1.01848290962907        1.26505565768789
C           -7.91071303061559       -0.46158493170066       -0.39408596229378
H           -9.03006419724065       -2.75430023315950       -2.64175391959500
H           -9.74295611646610       -1.14100342945136       -2.55676128874299
H           -9.85368164071380       -2.21865409131406       -1.16822959979135
H           -6.68299577290788       -2.36355226241825       -2.87968703515549
H           -3.52725786749207       -0.72484754773346       -2.30617998044204
H           -4.44974934571884       -1.86286763896912       -3.29722077814555
H           -3.76275148036669       -2.38408873068882       -1.76134686906044
H           -5.98716825064501        2.05059188287531       -1.76705292553257
H           -4.40379692904435        1.62311087209284       -2.39109608898171
H           -5.02253428322629        3.26634745056926       -2.60885800217007
H           -4.43995408901085        4.90215030542884       -1.13073443557551
H           -3.05060259246260        6.29320705945621        2.05302544775798
H           -4.23034057223296        6.66540112089035        0.78616682123626
H           -2.53113844568752        6.45827698219706        0.37260005782289
H           -2.74417434536234        4.01565654222140        2.67134107591732
H           -3.02334568211911        1.88846337445830        3.59558936145764
H           -1.96741693815003        1.03157730061045        2.47590706707681
H           -3.64219304663389        0.51682951738133        2.66636541169497
H           -5.22400977146635       -2.15696132556818        1.10331209876131
H           -4.92008099720563       -4.43609585161629        1.99064172154403
H           -2.68153172414900       -5.41129696220718        2.22616510918185
H           -0.67139995005087       -4.11000796522109        1.60423878527867
H            1.05064647390781       -2.16977453206375        0.84149380072217
H            2.58783666630603        2.10223575782318       -0.03788030927806
H            5.00408759419254        2.32641222132391       -0.17105804240141
H            2.92466054256695       -2.20326216229974        0.02282524145034
H            4.94196516349460       -4.00953183146436        0.03231231440056
H            7.14278802156618       -5.13590444018583       -0.03624802669875
H            9.20802058836801       -3.83301000995106       -0.24622286163330
H            9.15189162107451       -1.37207175093843       -0.36639066061513
H            6.61061334826571        1.99932576518056       -2.02474287059713
H            8.22822361801784        3.84722310107547       -2.23274014544502
H           10.17706418715294        3.96303666538409       -0.72138347852321
H           10.48857819800861        2.23620549788347        1.01561218652917
H            8.84806823395092        0.41401543239353        1.25559884913889
H            0.73955968043959        1.78738588925368       -0.87077046478180
H           -1.68449123997197        1.68930146304781       -0.74356990334299
H           -6.06869071573728        0.74967530975364        2.02015774656777
H           -7.79451403007032        0.99581426193544        1.71609795551505
H           -6.59292340778324        2.04023013962817        0.95253538367091
H           -8.85062209830522       -0.19224852921464        0.07048025093343
