  92
       -130.89712144
 C         -9.2773968798       -2.0967639381       -1.5597319757
 C         -7.9737179623       -1.4794601478       -1.1535982564
 C         -6.7910596626       -1.8372867374       -1.7842655228
 C         -5.5743174691       -1.2930915303       -1.4056734874
 C         -4.3321801938       -1.7410939568       -2.1226517395
 C         -5.5103216137       -0.3491171460       -0.3678926001
 B         -4.1240587005        0.3078468337       -0.0052914509
 C         -3.9387554420        1.8726848585       -0.0543878734
 C         -4.2327260214        2.6326086285       -1.1958471574
 C         -4.6507683273        1.9588902758       -2.4699169097
 C         -4.0982657842        4.0121753292       -1.1761538834
 C         -3.6855401049        4.6838148400       -0.0348143482
 C         -3.5731863882        6.1780982465       -0.0214702909
 C         -3.4023606170        3.9343964682        1.0967554482
 C         -3.5185988700        2.5530390012        1.0997564389
 C         -3.1761771367        1.8084202609        2.3591704855
 N         -3.0267508779       -0.5194814847        0.3734335064
 C         -3.0955316855       -1.7789368551        0.9694943179
 C         -4.2081282331       -2.5040938602        1.3697039256
 C         -4.0064634027       -3.7302275799        1.9781242060
 C         -2.7281759437       -4.2296245651        2.2071709813
 C         -1.6133732895       -3.5022955805        1.8381901528
 C         -1.7980259960       -2.2733673565        1.2221211469
 C         -0.8815743126       -1.2763625491        0.7368089176
 C          0.5008703275       -1.2205988204        0.6853216237
 C          1.1145237986       -0.1091893739        0.1198485474
 C          2.5804880010       -0.0239165464        0.0546817549
 C          3.2277357761        1.1989028825        0.2809435435
 C          4.6012383026        1.3213451350        0.2415923979
 C          5.3505945901        0.1842778500       -0.0261576955
 C          4.7166396446       -1.0535445042       -0.2814241521
 C          3.3353102672       -1.1534737003       -0.2353069115
 C          5.7627974242       -1.9961280735       -0.5635419141
 C          5.7720114733       -3.3521384166       -0.8625542853
 C          6.9868213221       -3.9786289373       -1.0558406153
 C          8.1827353026       -3.2732270015       -0.9394691640
 C          8.1992093852       -1.9237089227       -0.6433371427
 C          6.9803625318       -1.2829182566       -0.4713806868
 N          6.7159368092        0.0327538936       -0.1474300968
 C          7.6727683753        1.0426116986        0.0277081648
 C          8.6472186724        1.2582838542       -0.9425252689
 C          9.5925596018        2.2510847963       -0.7628456709
 C          9.5684218868        3.0412460187        0.3744488557
 C          8.5958620069        2.8318547658        1.3381054374
 C          7.6530960261        1.8341808427        1.1724461868
 C          0.3173841780        0.9181936268       -0.3995910357
 C         -1.0625277702        0.8747198041       -0.3590358427
 C         -1.6713319169       -0.2209668550        0.2352930511
 C         -6.7066170742        0.0146468503        0.2659452319
 C         -6.6943783160        0.9902711245        1.4059884382
 C         -7.9103027726       -0.5524795859       -0.1244937083
 H         -9.4174477390       -3.0469335349       -1.0426733685
 H         -9.2959523435       -2.2923708164       -2.6297309592
 H        -10.1111474125       -1.4470094185       -1.3039895462
 H         -6.8196084218       -2.5581991902       -2.5897187281
 H         -3.6250284534       -0.9254891035       -2.2394484616
 H         -4.5799314744       -2.1383472743       -3.1049809053
 H         -3.8437150692       -2.5311515933       -1.5523780388
 H         -4.9847637176        2.6907470881       -3.2015850853
 H         -5.4537815589        1.2526105268       -2.2813393374
 H         -3.8132963838        1.4081231136       -2.8982704867
 H         -4.3224408093        4.5788364963       -2.0693785237
 H         -4.5476159491        6.6234755971        0.1830962564
 H         -3.2317809363        6.5491382323       -0.9855652423
 H         -2.8816956344        6.5085350274        0.7501635997
 H         -3.0813011592        4.4385131671        1.9979755985
 H         -3.8222688543        0.9472492097        2.4997834154
 H         -3.2644616200        2.4615921381        3.2250567798
 H         -2.1471939081        1.4526992952        2.3083189957
 H         -5.2052645871       -2.1317936003        1.2094247601
 H         -4.8636489161       -4.3102748098        2.2871777439
 H         -2.6105010243       -5.1904087306        2.6856511974
 H         -0.6182049334       -3.8754541166        2.0280768754
 H          1.0929192591       -2.0250936239        1.0936143830
 H          2.6308075213        2.0688639002        0.5112041476
 H          5.0741631593        2.2774778012        0.4082412818
 H          2.8521103084       -2.0947268535       -0.4484050236
 H          4.8452284304       -3.9011213920       -0.9370889222
 H          7.0162025186       -5.0318835741       -1.2919448738
 H          9.1183830693       -3.7936704049       -1.0807728570
 H          9.1318305947       -1.3901276969       -0.5377966220
 H          8.6485002281        0.6545019719       -1.8379600080
 H         10.3457610399        2.4138905660       -1.5193584988
 H         10.3054240714        3.8181817746        0.5094569599
 H          8.5758858394        3.4422388028        2.2287569340
 H          6.9066695347        1.6524227434        1.9314798120
 H          0.7979866644        1.7618932350       -0.8719472269
 H         -1.6437365607        1.6774599965       -0.7796900144
 H         -6.1447983885        1.8866065520        1.1341592000
 H         -6.2063109811        0.5487754164        2.2747363546
 H         -7.7072353768        1.2658772060        1.6896976472
 H         -8.8206978350       -0.2613162170        0.3810612774
