  92
       -130.79706822
 C         -9.2516781484       -1.9102952835       -1.8865742698
 C         -7.9494346010       -1.3499353671       -1.4007505380
 C         -6.7478868093       -1.6929696316       -2.0033377660
 C         -5.5430745737       -1.1628116440       -1.5728322377
 C         -4.2864937000       -1.5666891415       -2.2906343372
 C         -5.5032310769       -0.2619011971       -0.4921944371
 B         -4.1480835247        0.3257039139        0.0240003760
 C         -3.9419397260        1.8534588199        0.2893777439
 C         -4.3518620119        2.8201767941       -0.6519209399
 C         -5.0051821435        2.4024078318       -1.9371529860
 C         -4.1298129439        4.1648136304       -0.4198276614
 C         -3.5179357414        4.6120184481        0.7459921941
 C         -3.2802134424        6.0747696415        0.9686349667
 C         -3.1345479702        3.6656420980        1.6844863352
 C         -3.3439671014        2.3119250440        1.4788157136
 C         -2.9300869639        1.3555280042        2.5609161902
 N         -3.0333947741       -0.5692306054        0.2596138475
 C         -3.1134256782       -1.8673972452        0.7626511725
 C         -4.2348108309       -2.5832508271        1.1430979489
 C         -4.0539284127       -3.8684984471        1.6368226157
 C         -2.7871699474       -4.4230997823        1.7630173731
 C         -1.6574313545       -3.7026882825        1.4082014460
 C         -1.8192942248       -2.4185262907        0.9140652729
 C         -0.8963079939       -1.4048404199        0.4757124097
 C          0.4672876591       -1.3458047576        0.4110914695
 C          1.1081720928       -0.1676004926       -0.0538142822
 C          2.5289973543       -0.0633706441       -0.0894084863
 C          3.1753840211        1.2117779750       -0.1068308174
 C          4.5347483579        1.3564092433       -0.1343627880
 C          5.3279626508        0.2041587021       -0.1726506386
 C          4.7209220713       -1.0834082757       -0.1286193987
 C          3.3570657411       -1.2176318002       -0.0844347644
 C          5.8036424092       -2.0355584556       -0.1298747023
 C          5.8528237690       -3.4198782413       -0.1171674015
 C          7.0919656511       -4.0396122935       -0.1486840690
 C          8.2627645491       -3.2936225933       -0.2082120142
 C          8.2374033730       -1.9080547617       -0.2214094740
 C          7.0008441935       -1.2840953155       -0.1629508865
 N          6.6924782513        0.0664794497       -0.1885854878
 C          7.6193196252        1.1129116078       -0.2526950284
 C          7.4675650723        2.1245999748       -1.2004507942
 C          8.3815642037        3.1584097519       -1.2575038977
 C          9.4540354392        3.1946244033       -0.3793833156
 C          9.6068079324        2.1891645847        0.5628951568
 C          8.6960347282        1.1530864287        0.6326631269
 C          0.2680279078        0.9125455480       -0.4947130350
 C         -1.0944082872        0.8570421432       -0.4472504049
 C         -1.7092622331       -0.2901619954        0.0787916022
 C         -6.7278641258        0.1017306096        0.1027640969
 C         -6.7572086240        1.0590701804        1.2586621755
 C         -7.9162210147       -0.4452878532       -0.3460139150
 H         -9.0931854230       -2.8218255924       -2.4582017560
 H         -9.7549175374       -1.1880047993       -2.5310164127
 H         -9.9138097172       -2.1282399138       -1.0505949426
 H         -6.7531902536       -2.3860401225       -2.8337598872
 H         -3.5831286956       -0.7400596885       -2.3481592892
 H         -4.5153153128       -1.9048844983       -3.2994589014
 H         -3.7989267335       -2.3872612141       -1.7643779132
 H         -6.0036117829        2.0143343903       -1.7465629979
 H         -4.4356267126        1.6111433605       -2.4191049976
 H         -5.0857337796        3.2452217600       -2.6201730806
 H         -4.4393964531        4.8898874794       -1.1605819141
 H         -3.0346225668        6.2749944687        2.0088859276
 H         -4.1610953327        6.6541208591        0.6968384143
 H         -2.4511855017        6.4196444288        0.3491644866
 H         -2.6689206041        3.9929736382        2.6044230832
 H         -2.9152252311        1.8570517985        3.5268166488
 H         -1.9278035774        0.9744096128        2.3652794314
 H         -3.6066527001        0.5065655117        2.6165575860
 H         -5.2213580663       -2.1615180798        1.0497748038
 H         -4.9177808146       -4.4449521353        1.9322195906
 H         -2.6817959756       -5.4255828986        2.1502997901
 H         -0.6720734348       -4.1305376265        1.5164926977
 H          1.0521506861       -2.1816039849        0.7595942610
 H          2.5662555625        2.0986300466       -0.0409016763
 H          4.9862058067        2.3368927690       -0.1056591183
 H          2.9208365461       -2.2028532197       -0.0842679783
 H          4.9435111385       -4.0008254759       -0.0895985904
 H          7.1504718960       -5.1174999302       -0.1375723334
 H          9.2141042139       -3.8023839888       -0.2489759377
 H          9.1519538591       -1.3389167102       -0.2881364244
 H          6.6445746930        2.0785835122       -1.8982428784
 H          8.2608977382        3.9364886182       -1.9963870969
 H         10.1669509495        4.0031457778       -0.4287260847
 H         10.4362531893        2.2172664993        1.2536520301
 H          8.7959989393        0.3834520647        1.3835644553
 H          0.7343475923        1.7812848698       -0.9296291369
 H         -1.6945892562        1.6784714123       -0.8032019429
 H         -6.0442871567        0.7599815462        2.0234780991
 H         -7.7503107182        1.1005414692        1.7003097103
 H         -6.4808880235        2.0582814836        0.9303394504
 H         -8.8441302519       -0.1651847252        0.1343946808
