92
 energy: -130.944687505281 gnorm: 0.000058250903 xtb: 6.7.1 (edcfbbe)
C           -8.49028064177475       -1.91021110050216       -2.94518597138504
C           -7.26758047456035       -1.45220828651402       -2.20839890971135
C           -6.01958876484099       -1.48439390508328       -2.81229517369541
C           -4.88011238418774       -1.04880349103321       -2.15288680880170
C           -3.56738576724136       -1.13063517616510       -2.88125209271557
C           -4.96389816532195       -0.55294178119888       -0.84035486569928
B           -3.66197640121553       -0.01103257919276       -0.13112511842966
C           -3.59754933529250        1.46718794441547        0.41790271134926
C           -3.86677544343022        2.58485141316675       -0.38814098976600
C           -4.13267141604016        2.42434710712261       -1.85689099337109
C           -3.84829052773440        3.86208980511451        0.15235756991153
C           -3.57857406729013        4.07950853547956        1.49529213344686
C           -3.59493823400091        5.46258710168575        2.07359122917128
C           -3.31710284087276        2.97578502145745        2.29314316509925
C           -3.31914161208309        1.68835230459984        1.77760364841421
C           -3.00936549756708        0.55015330453823        2.70959980029482
N           -2.52740969761927       -0.86987686043884        0.00690425911836
C           -2.53677533082391       -2.26556440714439        0.06572140089194
C           -3.61444733448411       -3.13809177771456        0.10819911093129
C           -3.35767881980605       -4.49477786747553        0.19928587332206
C           -2.05806746999477       -4.98757133729631        0.26673730883945
C           -0.97860040416274       -4.12565786263884        0.25716761692768
C           -1.21927949108903       -2.76233700668789        0.16200740724687
C           -0.35047845868943       -1.61563734686255        0.14914222633771
C            1.02831766323685       -1.48554889839880        0.17639273608679
C            1.59245845300165       -0.21712475879046        0.11135243819905
C            3.05494797055643       -0.05455129699882        0.11558594933474
C            3.66131381815542        0.86500778529683       -0.75209556661446
C            5.02950879143760        1.03446884366001       -0.80308478893857
C            5.81501001495320        0.25750969919544        0.03711757719676
C            5.22283041876473       -0.65622786024371        0.93937243162822
C            3.84523743465762       -0.81383507337547        0.96915350647536
C            6.30020212590790       -1.24992065201076        1.68189246469331
C            6.35657403025373       -2.21261734727644        2.68166111773929
C            7.59168415248625       -2.58328496057328        3.17548480896458
C            8.76264182364009       -2.01712680436427        2.67483299533286
C            8.73258906377661       -1.05801243891236        1.68041157266806
C            7.49281420544453       -0.66409471042890        1.19630011749516
N            7.18494871163277        0.24377130528877        0.20295221790732
C            8.10605126330879        1.02289683435296       -0.51625657274819
C            8.07791470130374        1.03021130376423       -1.90789558167295
C            8.98029558796804        1.80607658487797       -2.61253565542559
C            9.92075348650208        2.56892348427960       -1.93961721865946
C            9.95407476716418        2.55729562074613       -0.55467637739329
C            9.04870571892462        1.79287966287142        0.15873356150202
C            0.75123463149796        0.89824761769714        0.01956930145924
C           -0.62532133024558        0.78396451895990       -0.00871827626728
C           -1.18700069149531       -0.48217766788777        0.06937938975493
C           -6.22892608158414       -0.51287699559571       -0.23277102596724
C           -6.38629088321540       -0.02886246771510        1.17967189330609
C           -7.35091365270615       -0.96196228429091       -0.91389428083427
H           -8.88690223607790       -1.09423337199698       -3.55136803264138
H           -9.26760001755885       -2.22460222429058       -2.25215439467852
H           -8.25319045693866       -2.73743149995606       -3.61129268459767
H           -5.93125272328640       -1.86047694573121       -3.82286728003519
H           -3.07708057551280       -2.07951172246124       -2.65851505147662
H           -2.89499607602690       -0.32873954283157       -2.58975495577469
H           -3.72633373409599       -1.08125085688506       -3.95687064583037
H           -4.92283436839477        1.69717441949236       -2.02774325660892
H           -3.23751907788523        2.07092402094096       -2.36843156081683
H           -4.42583871330580        3.37308228058514       -2.30082132963529
H           -4.05203514738990        4.70942170878952       -0.48870292055964
H           -4.59072953666658        5.69416533854640        2.45488030838077
H           -3.34348533424881        6.20314365470945        1.31734178889038
H           -2.89124915503118        5.54581759386204        2.89931214294796
H           -3.10523135359259        3.12170335249868        3.34399161447575
H           -3.55983178512890       -0.34788905767803        2.44333237709125
H           -3.25428684204682        0.82066352360119        3.73497848722608
H           -1.94432970554826        0.31692115460762        2.66958151573337
H           -4.62889250305254       -2.77739393121327        0.06619007608971
H           -4.18767492280451       -5.18599020807882        0.22383901893415
H           -1.89603755221274       -6.05336081333830        0.33712077940880
H            0.03212595392588       -4.49973036779346        0.32704476009427
H            1.65736805349217       -2.36232964051078        0.21705419110225
H            3.03607468270308        1.44532932743747       -1.41467456292802
H            5.47124709216241        1.75466713748773       -1.47533062341153
H            3.39114964503380       -1.50260365683697        1.66598606781998
H            5.45033903164195       -2.66213579377557        3.05987875538622
H            7.65695191263894       -3.32800947812974        3.95538598509629
H            9.71547063504286       -2.33807134637095        3.07039374598914
H            9.64613487736664       -0.63713490921766        1.28792815385779
H            7.35552116394160        0.41914000471481       -2.42860793739936
H            8.95340232571104        1.80829995542249       -3.69238472223744
H           10.62607090702713        3.17060531305778       -2.49308552626213
H           10.68335599435983        3.15308408293501       -0.02560763170564
H            9.05807223555111        1.79650627467816        1.23871479048200
H            1.19290645589783        1.88339835106034       -0.01820130070200
H           -1.24040377790314        1.66534802084709       -0.08617900536139
H           -5.90998359580649       -0.72101951049459        1.87403220092495
H           -7.43830255255006        0.04795890729022        1.44499862977527
H           -5.91934061052847        0.94473177741033        1.30734773898151
H           -8.31451722800893       -0.92832211780604       -0.42318597899554
