92
 energy: -130.844223448192 gnorm: 0.000059966737 xtb: 6.7.1 (edcfbbe)
C           -9.15064166726992       -2.31001112407845       -1.63537264641054
C           -7.88667498430620       -1.60653938645966       -1.24132599842337
C           -6.66334869494862       -1.99167020076907       -1.77487197751717
C           -5.48204472305297       -1.36752376932967       -1.41361560131708
C           -4.20932800326478       -1.82754526289288       -2.06766589852030
C           -5.48435238032228       -0.32188975990207       -0.46606666706350
B           -4.15167147292880        0.35875446645433       -0.00276324330353
C           -3.98324382897620        1.91287280660605        0.07078529390555
C           -4.39457815172596        2.74609875611803       -0.99355161988763
C           -5.01538542042684        2.16618092948293       -2.23223304286205
C           -4.19358471404371        4.11291058519887       -0.93238258149190
C           -3.60569618163564        4.71872100277904        0.17309905310529
C           -3.42392625788597        6.20621925413804        0.22097060385602
C           -3.22403524527421        3.90635370609894        1.23103464676025
C           -3.41105131498409        2.53401811231851        1.20085279901199
C           -2.99976655689353        1.73884909695879        2.40805616198121
N           -3.02508828194055       -0.48290578361064        0.36416252083116
C           -3.09926858634522       -1.71152770982354        1.02371740672014
C           -4.21438012997050       -2.37048903618086        1.50995053163925
C           -4.02956384271369       -3.58965969608960        2.15061137819540
C           -2.76212354076192       -4.13426685517801        2.31439778386428
C           -1.63694919304276       -3.46733506760482        1.85625247902608
C           -1.80275044980690       -2.24675406844878        1.21875019317181
C           -0.88587711070214       -1.29517790136646        0.65443533897386
C            0.47977220643459       -1.24793867600910        0.55926675770299
C            1.10912256032887       -0.13210730712352       -0.03503917236204
C            2.53907247849710       -0.04831407940849       -0.10586224346017
C            3.19859591964310        1.21340568106951       -0.14195215288504
C            4.56400240140562        1.33301098951543       -0.16822794632001
C            5.33389082694783        0.16718266760109       -0.18100755425266
C            4.70366499463502       -1.11009811744284       -0.20533008732749
C            3.33458379643367       -1.21636480622368       -0.14772006487925
C            5.76513076975112       -2.07953543505122       -0.29768991248745
C            5.78811296713836       -3.46520503493007       -0.35039139162750
C            7.01548263574656       -4.10602009775688       -0.40732854222469
C            8.20205549995173       -3.38212827727803       -0.39462835329995
C            8.20269203610074       -1.99615293648626       -0.34279231126405
C            6.97675168015744       -1.35005353942841       -0.31497219978485
N            6.69520858370050        0.00555938252113       -0.24357472987915
C            7.64593355167387        1.03344636856310       -0.18312343409480
C            8.68019198004105        1.09282008465132       -1.11597213999700
C            9.61738544310891        2.10577004055304       -1.04163107268606
C            9.53181847068397        3.06869026397925       -0.04756116888857
C            8.50024258067086        3.01375439318337        0.87752865483874
C            7.56120446228181        2.00213827565346        0.81638774321370
C            0.27614931061813        0.90508281633637       -0.56670941229005
C           -1.08897996610035        0.85618071485336       -0.50283826360239
C           -1.70013586123561       -0.22712964335724        0.14287298380736
C           -6.73189412588998        0.08655403236116        0.05180121542879
C           -6.82385331003266        1.19809002086198        1.05797253133732
C           -7.89603586413733       -0.55915287978559       -0.32938062019331
H           -9.22881805999702       -3.26275842251465       -1.10862400972474
H           -9.15922104093670       -2.51920470046693       -2.70394367906235
H          -10.02399618847975       -1.71115443767195       -1.38620973567727
H           -6.63566717045529       -2.79511664666239       -2.49960610706823
H           -3.51710571788778       -1.00128307324405       -2.21373705528425
H           -4.42183835257332       -2.28045745853087       -3.03456424711706
H           -3.71332336228085       -2.57784685230338       -1.45005893956922
H           -5.05057714894559        2.90855189461895       -3.02726921106218
H           -6.03197924849002        1.83046697492504       -2.03210372723094
H           -4.45087258058358        1.30435797288326       -2.58163845922164
H           -4.50004556653368        4.73088730932681       -1.76671990714352
H           -4.38604824078028        6.69913012145197        0.36933801685767
H           -3.00497938016013        6.57263190872765       -0.71544724990646
H           -2.76424791248719        6.49170779065603        1.03728684032587
H           -2.77665872790409        4.35673969472090        2.10781414726967
H           -3.65267143603914        0.88195304128218        2.56002945049607
H           -3.02807223656547        2.36190625823592        3.30036083365621
H           -1.98014232615921        1.36797173774256        2.29172819695713
H           -5.20243996213381       -1.95606533722888        1.39108968390540
H           -4.89014856277352       -4.11933961428863        2.53160623501407
H           -2.65272226094652       -5.08539834748433        2.81494269505812
H           -0.65114112439624       -3.88552611277332        1.99517737001679
H            1.07444468108103       -2.04145655947041        0.98531160965285
H            2.60055786918165        2.11014921940748       -0.10313540302917
H            5.03155447992984        2.30602834235504       -0.18466941789158
H            2.86934843918073       -2.18847873196596       -0.19006718575729
H            4.86835168646829       -4.03026567933567       -0.34431073376514
H            7.05318155536323       -5.18450441489920       -0.45314407232062
H            9.14493178230949       -3.90818627705880       -0.42229383402523
H            9.13018573756902       -1.44529693845289       -0.31452966533593
H            8.73010344684659        0.35676783634466       -1.90438590469475
H           10.41533531151247        2.14849122740828       -1.76825976387869
H           10.26534957611911        3.85887962445694        0.00575612299482
H            8.43196603022713        3.75862364282374        1.65666473200764
H            6.77016293146072        1.94162901056578        1.54905502638110
H            0.74413135749837        1.72576993452229       -1.08693784385027
H           -1.68994524856343        1.63946143826487       -0.93781076785995
H           -6.65050146939912        2.16232521883439        0.58180529970744
H           -6.07309465021577        1.08012280605911        1.83645488382001
H           -7.80902538136111        1.21711250021848        1.52009354525294
H           -8.83903663922965       -0.23949353272358        0.09541798706797
