  62
  -101.979523370000        1.00000000000000      !
 O         -0.6675725782       -1.2342714269        2.6411388490
 C         -0.9754423910       -0.9837873036        1.4977297850
 C         -2.2049145787       -1.5400974283        0.8758824806
 C         -3.4045100894       -1.6316825845        1.5868318116
 N         -4.5006380689       -2.1328890046        1.0521741952
 C         -4.4207258817       -2.5468094063       -0.2001915349
 N         -3.3399904450       -2.5394627424       -0.9582491222
 C         -2.2380760931       -2.0462978838       -0.4240649706
 C         -0.1238905571       -0.1656915401        0.5910527981
 C          1.2537471023       -0.3216575735        0.6687709216
 C          2.0929089119        0.3339860595       -0.2260085972
 N          3.4737224916        0.1440679999       -0.1624756678
 C          4.4320369253        1.1426144824       -0.1644100299
 C          4.2749212488        2.5204977578       -0.1831286076
 C          5.4155444462        3.3004475005       -0.1483503050
 C          6.6848378081        2.7310015566       -0.0864083576
 C          6.8458768193        1.3605632794       -0.0402813677
 C          5.7145077295        0.5566343690       -0.0746380286
 C          5.5138004992       -0.8651292998       -0.0218954346
 C          6.3806241495       -1.9474348137        0.0490723407
 C          5.8484078432       -3.2212239613        0.0570712014
 C          4.4726853522       -3.4222095405       -0.0211300145
 C          3.5907287748       -2.3604004887       -0.0919682311
 C          4.1181515821       -1.0778597854       -0.0729845246
 C          1.5362226702        1.1763412115       -1.1896244117
 C          0.1721442239        1.3850733407       -1.2308962714
 C         -0.6718682584        0.7234591899       -0.3449387002
 N         -2.0494100551        0.9682824304       -0.3581520908
 C         -2.8084527417        1.2911128902        0.7533327522
 C         -2.3912742576        1.6456422674        2.0273994704
 C         -3.3668728796        1.9311442017        2.9635915149
 C         -4.7213337297        1.8763319423        2.6419496221
 C         -5.1388408877        1.5488761236        1.3674426647
 C         -4.1773802479        1.2569542736        0.4090886923
 C         -4.2411406144        0.8809411470       -0.9764243196
 C         -5.2902543057        0.6379959884       -1.8521581016
 C         -4.9962112846        0.2368085560       -3.1400930804
 C         -3.6783286261        0.0716629055       -3.5579059937
 C         -2.6171185784        0.3062555613       -2.7048102433
 C         -2.9078451406        0.7169058057       -1.4133645209
 H         -3.4727743050       -1.2741362602        2.6058345442
 H         -5.3252434821       -2.9393304734       -0.6451130020
 H         -1.3509872550       -2.0753652952       -1.0455284568
 H          1.6619871939       -0.9677979271        1.4312931431
 H          3.2960968820        2.9752506700       -0.2092321751
 H          5.3190666271        4.3759368083       -0.1651256537
 H          7.5513926801        3.3746269009       -0.0635808072
 H          7.8281780607        0.9182965170        0.0265980530
 H          7.4476638153       -1.7906614753        0.0922576718
 H          6.5041553884       -4.0768934737        0.1151809549
 H          4.0851579182       -4.4299947619       -0.0297485139
 H          2.5276865864       -2.5318859675       -0.1706033081
 H          2.1809140185        1.6682042971       -1.9017977364
 H         -0.2530831345        2.0673408831       -1.9514278604
 H         -1.3436303776        1.6981739474        2.2830522762
 H         -3.0706907427        2.2023603662        3.9656752875
 H         -5.4525950770        2.1003931763        3.4037519581
 H         -6.1876226761        1.5175455930        1.1160385521
 H         -6.3119006543        0.7531984886       -1.5238864521
 H         -5.7979834374        0.0399326020       -3.8356775383
 H         -3.4808529001       -0.2532545155       -4.5682498941
 H         -1.5980821696        0.1609714984       -3.0308476668
