  80
  -124.930440806200       0.895307534474358      !
 C          1.5929146012        4.2201030916        1.0705413873
 C          0.9346914568        2.9232633095        0.7028983684
 C         -0.3535969146        2.6744788536        1.1375535019
 C         -1.0326186672        1.4870437489        0.8586186078
 C         -2.3968198690        1.3290475018        1.3739402865
 C         -2.6689400422        1.6107693264        2.7215210861
 C         -3.9446049799        1.4567034380        3.2297048258
 C         -4.9807975902        1.0334116923        2.4186765142
 C         -4.7269258628        0.7678787347        1.0664991175
 N         -5.7679537326        0.3645591916        0.2283417805
 C         -6.0705217189        0.9170996590       -1.0018744635
 C         -5.4697868362        1.9804291675       -1.6605749408
 C         -6.0001083015        2.3642169509       -2.8852862646
 C         -7.0995982697        1.7156007436       -3.4314854750
 C         -7.7214804585        0.6683110372       -2.7635658085
 C         -7.2097385949        0.2698650478       -1.5387726157
 C         -7.6053582683       -0.7266486136       -0.5788037220
 C         -8.6120231289       -1.6650511383       -0.5498060758
 C         -8.6975253561       -2.5201004320        0.5614494921
 C         -9.7144125357       -3.4816668165        0.6195157148
 N        -10.5539830845       -4.2708905959        0.6656074491
 C         -7.7578534949       -2.4333863310        1.6173925808
 C         -6.7481481725       -1.4986000868        1.5913384001
 C         -6.6829183598       -0.6280712064        0.5052168249
 C         -3.4413742761        0.9144124454        0.5571533635
 C         -0.3694650180        0.4842707488        0.1350273407
 C         -0.9963743157       -0.8459485124       -0.1622330732
 C          0.9279476001        0.7234602698       -0.2776217707
 C          1.5945123381        1.9247180388       -0.0299047879
 C          2.9720300069        2.0710628362       -0.5104714635
 C          3.3934341264        3.1938044097       -1.2399051101
 C          4.7051929837        3.3020387598       -1.6648138605
 C          5.6271543967        2.3141402406       -1.3769679724
 C          5.2163178980        1.1810006011       -0.6581296030
 N          6.1287482217        0.1735979641       -0.3503417489
 C          7.3784671927        0.3613987703        0.2114391845
 C          7.9949083040        1.5378061653        0.6122018532
 C          9.2549153181        1.4437013628        1.1906246849
 C          9.8745582563        0.2156191934        1.3733935369
 C          9.2495236921       -0.9684137174        0.9996117348
 C          7.9918819084       -0.8973071594        0.4220950890
 C          7.0595809426       -1.8910258887       -0.0408180503
 C          7.0974369124       -3.2645935548       -0.1064749961
 C          5.9934512099       -3.9402735379       -0.6542463452
 C          6.0021311457       -5.3378338528       -0.7252168660
 N          6.0107154857       -6.4902685986       -0.7815799302
 C          4.8775796963       -3.2207844577       -1.1530988136
 C          4.8364051581       -1.8470191523       -1.0887643690
 C          5.9137258780       -1.1791263269       -0.5101655118
 C          3.8929890720        1.0649747599       -0.2461420401
 H          2.6727189463        4.1099495917        1.1380895318
 H          1.3733285808        4.9860821505        0.3262906077
 H          1.2150908491        4.5737263454        2.0276739578
 H         -0.8672354732        3.4374174614        1.7066460980
 H         -1.8628705917        1.9247351434        3.3670713461
 H         -4.1380465812        1.6724248107        4.2699151092
 H         -5.9855540860        0.9456294085        2.8019981296
 H         -4.6291320034        2.5049323019       -1.2331097392
 H         -5.5482432920        3.1866098821       -3.4183518738
 H         -7.4833814839        2.0376546297       -4.3874420330
 H         -8.5860686104        0.1784287040       -3.1835610647
 H         -9.3220021960       -1.7566865567       -1.3576652108
 H         -7.8419316208       -3.1230773947        2.4428451370
 H         -6.0198015700       -1.4537105359        2.3865280029
 H         -3.2589287144        0.6975459191       -0.4837512350
 H         -1.7372600357       -1.1104260761        0.5887659068
 H         -0.2337250336       -1.6216319172       -0.1901565883
 H         -1.4864921669       -0.8318207987       -1.1364144737
 H          1.4451869335       -0.0469945769       -0.8330920213
 H          2.6798309102        3.9619946576       -1.4915997733
 H          5.0133826927        4.1654164835       -2.2355895288
 H          6.6426144252        2.3810921996       -1.7353547739
 H          7.5094060959        2.4946924245        0.4987200101
 H          9.7553838781        2.3455668387        1.5080350259
 H         10.8543967914        0.1784816455        1.8247471391
 H          9.7275768553       -1.9221010090        1.1603213236
 H          7.9517287363       -3.8233261395        0.2442901745
 H          4.0620478758       -3.7725445179       -1.5942034957
 H          3.9967905590       -1.3029500078       -1.4936087820
 H          3.5955372413        0.2104937252        0.3438518757
  80
  -124.926939602900       2.202574512567555E-002 !
 C          1.7221162456        4.3073882013       -1.2374182697
 C          0.9602988846        3.3223192439       -0.4017554466
 C         -0.3904235654        3.4536906701       -0.3046848478
 C         -1.2506713960        2.4852349569        0.2901542952
 C         -2.6578606893        2.7105813873        0.2576096060
 C         -3.1699867786        4.0369729116        0.3401202168
 C         -4.5166397999        4.2921105618        0.2817983618
 C         -5.4322873889        3.2587685922        0.1123637622
 C         -4.9510604848        1.9458633691        0.0011009421
 N         -5.8667884971        0.8984853609       -0.2107934192
 C         -6.8254753193        0.8654840909       -1.2044375291
 C         -7.0770803302        1.7809675810       -2.2168806819
 C         -8.0972070650        1.4938315832       -3.1036972477
 C         -8.8451412320        0.3229403061       -2.9986802023
 C         -8.5839088412       -0.6031205860       -2.0071190913
 C         -7.5647058664       -0.3353534951       -1.1038348525
 C         -7.0166818343       -1.0544709852        0.0135732469
 C         -7.3246068611       -2.2641428415        0.6079333700
 C         -6.5855291997       -2.6594423135        1.7219604484
 C         -6.8724011813       -3.8892311107        2.3490448362
 N         -7.1049470550       -4.8903314736        2.8612084537
 C         -5.5635435367       -1.8467122320        2.2419274808
 C         -5.2492585574       -0.6410821017        1.6561256107
 C         -5.9667793258       -0.2505927376        0.5302965858
 C         -3.6036947097        1.6739895811        0.0841943515
 C         -0.6104112402        1.3143256356        0.8444854168
 C         -1.3792779582        0.2988755711        1.6355222145
 C          0.7421261355        1.1860927189        0.7547899471
 C          1.6045656697        2.1758247074        0.1985287935
 C          3.0151225115        2.0237880235        0.3079533636
 C          3.8933791574        3.1304523914        0.4812330390
 C          5.2525992066        2.9610277354        0.5573732767
 C          5.8216961908        1.6944366084        0.4683154617
 C          4.9750105966        0.5838648956        0.3214768611
 N          5.5420789462       -0.7001878145        0.2394547297
 C          5.2035382730       -1.7874741518        1.0208497852
 C          4.2786477045       -1.8795564085        2.0512155336
 C          4.1561809193       -3.0943092481        2.6988343317
 C          4.9346434195       -4.1924621800        2.3394047915
 C          5.8709181712       -4.1015259096        1.3273766129
 C          6.0116264995       -2.8911418682        0.6630199206
 C          6.8725274252       -2.4364926934       -0.3949431160
 C          7.8537644869       -3.0492266571       -1.1520335257
 C          8.4942297310       -2.2964755025       -2.1355224179
 C          9.5015431121       -2.8909009779       -2.9233464163
 N         10.3207706208       -3.3742438838       -3.5661507842
 C          8.1472053196       -0.9542858433       -2.3661898474
 C          7.1708043279       -0.3353593967       -1.6180165406
 C          6.5441173268       -1.0740616721       -0.6191959926
 C          3.6094285903        0.7385303474        0.2628113631
 H          1.9985869015        5.1865792237       -0.6537217824
 H          2.6267945956        3.8638208028       -1.6452543642
 H          1.0996397739        4.6511919173       -2.0619358614
 H         -0.8570700138        4.2910874966       -0.8034956991
 H         -2.4831457872        4.8516074729        0.5088342074
 H         -4.8760774041        5.3064595619        0.3740377455
 H         -6.4930106944        3.4506111741        0.0839552723
 H         -6.4895847112        2.6813696819       -2.3136671800
 H         -8.3164624963        2.1905411293       -3.8987182841
 H         -9.6346506492        0.1359475923       -3.7105383727
 H         -9.1544528889       -1.5164641854       -1.9348651189
 H         -8.1183531361       -2.8897859216        0.2287634617
 H         -5.0260094771       -2.1811617632        3.1167062948
 H         -4.4767210976       -0.0114599571        2.0682631368
 H         -3.2679243923        0.6627614695       -0.0731780834
 H         -2.2186519561        0.7646227209        2.1465468843
 H         -0.7322690734       -0.1632318469        2.3790005805
 H         -1.7587468769       -0.4986680003        0.9947739622
 H          1.2041441002        0.3335034203        1.2314258704
 H          3.4743802537        4.1124133991        0.6226504097
 H          5.8931442782        3.8178830656        0.7056418481
 H          6.8872528546        1.5538671353        0.5559792522
 H          3.6849987718       -1.0271347573        2.3451695546
 H          3.4435038226       -3.1938153570        3.5038006403
 H          4.8073393971       -5.1247974023        2.8681631794
 H          6.4847187461       -4.9480357411        1.0598706469
 H          8.1205239267       -4.0833821076       -0.9950459940
 H          8.6569058165       -0.4116465665       -3.1483031643
 H          6.8940693774        0.6902749669       -1.8088993004
 H          2.9905483032       -0.1307179560        0.1013822249
  80
  -124.926797140500       1.894346515517000E-002 !
 C          0.4170835332        3.1841755357       -0.9344336613
 C          0.2777283563        1.7971899531       -0.3808470823
 C         -0.9169481310        1.4217932093        0.1527041353
 C         -1.1192699088        0.2265895970        0.8996353621
 C         -2.4058411404       -0.0257596734        1.4630999436
 C         -2.6003603697       -0.6366819457        2.7293997562
 C         -3.8605601416       -0.8712268134        3.2223482719
 C         -4.9921536439       -0.5193447417        2.4944007265
 C         -4.8254196651        0.0977368219        1.2461161368
 N         -5.9588643057        0.4567342133        0.4956855349
 C         -6.2018421154        1.6990410716       -0.0569952348
 C         -5.4518924308        2.8637410030        0.0249986940
 C         -5.9418584306        3.9905862169       -0.6072387914
 C         -7.1504400334        3.9690052756       -1.2999248475
 C         -7.9124200582        2.8186007930       -1.3667151372
 C         -7.4397217221        1.6743851431       -0.7393460628
 C         -7.9576456866        0.3418186006       -0.5897409068
 C         -9.1039377840       -0.2875002842       -1.0383977076
 C         -9.2861668101       -1.6321705474       -0.7188945998
 C        -10.4464736256       -2.3019305521       -1.1586583387
 N        -11.3915327541       -2.8477777109       -1.5143256605
 C         -8.3262240609       -2.3396065600        0.0248048871
 C         -7.1810119499       -1.7219007650        0.4753156615
 C         -7.0049083314       -0.3732487664        0.1818419392
 C         -3.5671000129        0.3549482023        0.7506066743
 C          0.0279162887       -0.6342438187        1.0601324256
 C         -0.0799349964       -1.9777632012        1.7165123690
 C          1.2170040538       -0.2708861191        0.5063943687
 C          1.4065882147        0.8973043364       -0.2913630232
 C          2.6283102646        1.0699150408       -0.9970072246
 C          2.7024319007        1.7125738772       -2.2661999062
 C          3.8939279298        1.8475403078       -2.9322245192
 C          5.0782986709        1.3501467661       -2.3957539049
 C          5.0309842868        0.7001570463       -1.1520210761
 N          6.2122172169        0.1682853577       -0.6064164140
 C          7.4084967598        0.8412828033       -0.4551953013
 C          7.7171337113        2.1650391849       -0.7356423571
 C          9.0038956701        2.5946526511       -0.4716908533
 C          9.9611044102        1.7382418398        0.0681464146
 C          9.6527784764        0.4261179412        0.3724706020
 C          8.3671457852       -0.0281391514        0.1140665345
 C          7.7039739177       -1.2884095738        0.3104608446
 C          8.1160250782       -2.5103919793        0.8090090474
 C          7.1948545999       -3.5564175401        0.8367293117
 C          7.5823675895       -4.8133027132        1.3447257523
 N          7.8981983567       -5.8366610344        1.7580528862
 C          5.8860059055       -3.3851204592        0.3540952639
 C          5.4660856387       -2.1714398961       -0.1424657206
 C          6.3722496784       -1.1156831960       -0.1491559767
 C          3.8432286395        0.5593081681       -0.4737422835
 H          1.4467124223        3.5282042545       -0.8826273205
 H          0.0858413802        3.2289801343       -1.9729124078
 H         -0.2089471669        3.8720494033       -0.3679861964
 H         -1.7389911436        2.1223279987        0.1044918264
 H         -1.7437308885       -0.8598086878        3.3428931137
 H         -3.9795937292       -1.3203664740        4.1973492688
 H         -5.9819089757       -0.6771105721        2.8925049712
 H         -4.5240901750        2.8917107600        0.5758029088
 H         -5.3772579894        4.9096188740       -0.5601822440
 H         -7.4973505785        4.8694849571       -1.7834282707
 H         -8.8560319743        2.8061306988       -1.8902247797
 H         -9.8411473170        0.2397544116       -1.6246479942
 H         -8.4979770215       -3.3844467163        0.2365020530
 H         -6.4381577921       -2.2728930015        1.0313868736
 H         -3.4683542054        0.7853882983       -0.2342343736
 H         -1.0731801681       -2.4008937149        1.5883029205
 H          0.1310035545       -1.9063178396        2.7844853371
 H          0.6496345251       -2.6627217027        1.2881577082
 H          2.0405346145       -0.9656862868        0.5806661052
 H          1.7928971937        2.0350191122       -2.7437342850
 H          3.9148555255        2.3247659669       -3.9009526784
 H          6.0080294138        1.4164987392       -2.9374738367
 H          6.9747493296        2.8388012628       -1.1357307460
 H          9.2719920415        3.6184362813       -0.6849796705
 H         10.9555024049        2.1119556326        0.2589937262
 H         10.3907494612       -0.2330995899        0.8034574523
 H          9.1242591539       -2.6607436515        1.1640500448
 H          5.2089529324       -4.2261442287        0.3758995953
 H          4.4659776141       -2.0486953448       -0.5293068831
 H          3.8541562987        0.1087697472        0.5065743720
  80
  -124.926746235600       1.795002886091421E-002 !
 C          1.7553403870        4.4719394144       -1.0354631482
 C          0.9842515460        3.4348788689       -0.2751367246
 C         -0.3690761643        3.5521112443       -0.1938351658
 C         -1.2325380817        2.5537051198        0.3471132911
 C         -2.6408613736        2.7591168799        0.2941985750
 C         -3.1804621620        4.0744620452        0.3910563660
 C         -4.5305969375        4.3044179967        0.3166946588
 C         -5.4246537674        3.2566791398        0.1194688830
 C         -4.9166716529        1.9544947431       -0.0029480591
 N         -5.8092752658        0.8906771566       -0.2320144503
 C         -6.7577374125        0.8436700109       -1.2345449126
 C         -7.0146418123        1.7571959853       -2.2473873259
 C         -8.0195796778        1.4538627455       -3.1460885223
 C         -8.7475580165        0.2695336481       -3.0517580240
 C         -8.4814348697       -0.6537455619       -2.0588506383
 C         -7.4771855173       -0.3699856281       -1.1438543349
 C         -6.9282182560       -1.0820323594       -0.0223745311
 C         -7.2223993349       -2.2970239966        0.5680464468
 C         -6.4873642202       -2.6820594879        1.6885061168
 C         -6.7624052330       -3.9162543553        2.3121444969
 N         -6.9858039853       -4.9211067770        2.8205480283
 C         -5.4825195824       -1.8544402146        2.2180635663
 C         -5.1828046437       -0.6428472700        1.6368816640
 C         -5.8967750856       -0.2617512598        0.5056723053
 C         -3.5657788493        1.7078313959        0.0911736115
 C         -0.5898564170        1.3727419659        0.8780443952
 C         -1.3540816096        0.3358617860        1.6453363610
 C          0.7632968820        1.2540233660        0.7928093484
 C          1.6259192029        2.2616486623        0.2709040624
 C          3.0356903571        2.0832814400        0.3659866897
 C          3.9392142731        3.1548234017        0.6057262027
 C          5.2910519147        2.9398825066        0.7065646584
 C          5.8264607148        1.6621121719        0.5770673682
 C          4.9545304748        0.5864027735        0.3460144658
 N          5.4777793569       -0.7116673270        0.2187986721
 C          5.0385970289       -1.8275854087        0.9052632402
 C          4.0473327102       -1.9381306521        1.8702714457
 C          3.8215191031       -3.1849227488        2.4219622464
 C          4.5647473715       -4.2977076435        2.0344880591
 C          5.5700878453       -4.1894753876        1.0929385697
 C          5.8138336167       -2.9468709748        0.5248638355
 C          6.7638150161       -2.4710255508       -0.4435844746
 C          7.7653323706       -3.0850884587       -1.1721946118
 C          8.5059548260       -2.3071460436       -2.0613219989
 C          9.5393717902       -2.9032155988       -2.8131568110
 N         10.3818822417       -3.3888745758       -3.4231922158
 C          8.2344959546       -0.9389182862       -2.2305555341
 C          7.2381979625       -0.3185424974       -1.5100358419
 C          6.5144719115       -1.0824600212       -0.5997321514
 C          3.5965835605        0.7878960771        0.2553737689
 H          2.6539801287        4.0499320593       -1.4782808121
 H          1.1363154069        4.8870868737       -1.8290167195
 H          2.0443925999        5.2987228753       -0.3849447279
 H         -0.8335244184        4.4090782294       -0.6601097775
 H         -2.5128932781        4.8994534148        0.5844629516
 H         -4.9108368428        5.3101354225        0.4194639794
 H         -6.4883594530        3.4288254246        0.0797403713
 H         -6.4422090943        2.6681726236       -2.3351480609
 H         -8.2423905623        2.1481633686       -3.9422108750
 H         -9.5251691672        0.0697301510       -3.7731679921
 H         -9.0366588527       -1.5770851717       -1.9945742518
 H         -8.0028952585       -2.9346582466        0.1814205722
 H         -4.9467567937       -2.1817887512        3.0966305683
 H         -4.4242067212       -0.0015619122        2.0566489136
 H         -3.2093521632        0.7057936247       -0.0778788210
 H         -0.7066830157       -0.1321437261        2.3848239471
 H         -1.7212709451       -0.4551326110        0.9898600779
 H         -2.2007407989        0.7841620560        2.1597343381
 H          1.2261735210        0.3905054792        1.2485624506
 H          3.5470791530        4.1423486857        0.7813588609
 H          5.9520895946        3.7694956026        0.9099354826
 H          6.8838262018        1.4866935987        0.6950115289
 H          3.4808457206       -1.0765988112        2.1897123732
 H          3.0534463508       -3.2985937595        3.1722925103
 H          4.3551303811       -5.2552924027        2.4862661485
 H          6.1577675357       -5.0479464783        0.8057330762
 H          7.9732901320       -4.1387952062       -1.0641408296
 H          8.8188560754       -0.3762229048       -2.9432187048
 H          7.0202459789        0.7281958579       -1.6569482214
 H          2.9572672697       -0.0499544917        0.0237313314
  80
  -124.926694669600       1.699679586183632E-002 !
 C          1.7353337846        4.4398106783       -1.1626976852
 C          0.9749222649        3.4361972205       -0.3485910225
 C         -0.3761712728        3.5652618465       -0.2457654245
 C         -1.2340249884        2.5869826985        0.3364281623
 C         -2.6435396604        2.7917754842        0.2934916955
 C         -3.1835208616        4.1067513381        0.3790017832
 C         -4.5357739726        4.3312603087        0.3230080561
 C         -5.4290473329        3.2786446755        0.1503784078
 C         -4.9193294382        1.9770360579        0.0284202708
 N         -5.8086198981        0.9094129211       -0.1925604302
 C         -6.7719845374        0.8622163724       -1.1815343701
 C         -7.0645286559        1.7884550650       -2.1729954902
 C         -8.0796315553        1.4823837592       -3.0593216395
 C         -8.7829409142        0.2826087463       -2.9750160709
 C         -8.4798653297       -0.6541238204       -2.0056931303
 C         -7.4650354761       -0.3675775142       -1.1033491821
 C         -6.8817528462       -1.0913100338       -0.0070773875
 C         -7.1362383307       -2.3274846509        0.5573362101
 C         -6.3726468127       -2.7220373536        1.6550017870
 C         -6.6015748489       -3.9799419639        2.2492221820
 N         -6.7856465656       -5.0045908429        2.7336354075
 C         -5.3820701039       -1.8811734053        2.1907203708
 C         -5.1217191925       -0.6487640893        1.6350045271
 C         -5.8601876085       -0.2597614634        0.5222634059
 C         -3.5662134818        1.7360118370        0.1102859806
 C         -0.5893689304        1.4204969842        0.8945552992
 C         -1.3505876166        0.4129731945        1.7029065649
 C          0.7619244852        1.2929243387        0.7955925145
 C          1.6209200112        2.2785886826        0.2268809622
 C          3.0309045835        2.0987070890        0.3052461974
 C          3.9427301919        3.1770656915        0.4775832864
 C          5.2964929269        2.9640985011        0.5495020684
 C          5.8272015795        1.6809060217        0.4584573398
 C          4.9472643642        0.5981591862        0.3020166520
 N          5.4659369622       -0.7056133505        0.2183898694
 C          5.0560680686       -1.7857297263        0.9760332190
 C          4.1068815447       -1.8459894954        1.9866515190
 C          3.9062155380       -3.0631463826        2.6096185260
 C          4.6327544091       -4.1950793749        2.2464868713
 C          5.5954653271       -4.1362720780        1.2572010322
 C          5.8139809779       -2.9240318952        0.6176837336
 C          6.7208131823       -2.4981692061       -0.4134343584
 C          7.6874223354       -3.1497138253       -1.1565999794
 C          8.3883831667       -2.4172739170       -2.1137780493
 C          9.3840691605       -3.0515660612       -2.8850519229
 N         10.1961054156       -3.5675049821       -3.5115597211
 C          8.1136925190       -1.0566840780       -2.3334492331
 C          7.1518078460       -0.3992959645       -1.5992997211
 C          6.4664229535       -1.1178308457       -0.6245922021
 C          3.5876767933        0.7977820864        0.2406084684
 H          2.0398538674        5.2901665346       -0.5507976848
 H          2.6233721255        3.9968831391       -1.6065161782
 H          1.1022183886        4.8263257949       -1.9595444884
 H         -0.8449790463        4.4104824182       -0.7290589269
 H         -2.5144164087        4.9357310087        0.5490516150
 H         -4.9179448261        5.3368547994        0.4197860318
 H         -6.4937308146        3.4475954888        0.1273292881
 H         -6.5112022171        2.7115756509       -2.2555173136
 H         -8.3299779689        2.1871826146       -3.8378198859
 H         -9.5701190310        0.0815747280       -3.6855845516
 H         -9.0149400063       -1.5897940900       -1.9496021438
 H         -7.9069106374       -2.9746961006        0.1669339751
 H         -4.8253669033       -2.2154588096        3.0534882500
 H         -4.3743325162        0.0015019491        2.0606182060
 H         -3.2059548889        0.7345750799       -0.0554183093
 H         -1.7244459542       -0.3990703075        1.0776749680
 H         -2.1926345744        0.8818466013        2.2065396624
 H         -0.6997758258       -0.0309428101        2.4541210743
 H          1.2271445271        0.4430013457        1.2737910068
 H          3.5567726083        4.1717523714        0.6233913612
 H          5.9634682282        3.8003143096        0.6993793478
 H          6.8875186787        1.5081349760        0.5513776106
 H          3.5538528453       -0.9683902117        2.2854523098
 H          3.1719948629       -3.1379104578        3.3977511167
 H          4.4438738850       -5.1283701789        2.7547001453
 H          6.1698976993       -5.0093483749        0.9877408566
 H          7.8975734746       -4.1981716486       -1.0087884018
 H          8.6679154916       -0.5300977816       -3.0959974970
 H          6.9304619334        0.6408130406       -1.7835983306
 H          2.9425385160       -0.0494235344        0.0662387698
  80
  -124.926606372600       1.548062771908151E-002 !
 C          1.7420338001        4.3777312127       -1.1623607096
 C          0.9737084040        3.3649685447       -0.3672747647
 C         -0.3774223533        3.4930625212       -0.2694482815
 C         -1.2386587668        2.5078194313        0.2966505803
 C         -2.6455705825        2.7329837959        0.2774233305
 C         -3.1604646671        4.0556338623        0.3983561244
 C         -4.5084735751        4.3074504383        0.3639771785
 C         -5.4237193743        3.2756770657        0.1815536167
 C         -4.9400741383        1.9675291521        0.0295349063
 N         -5.8545210436        0.9219169333       -0.1965201501
 C         -6.8252859192        0.9087554232       -1.1787348652
 C         -7.0958723664        1.8492860232       -2.1628871194
 C         -8.1234633337        1.5777180265       -3.0459160725
 C         -8.8606376065        0.3982037786       -2.9646420641
 C         -8.5811473561       -0.5519343954       -2.0012401876
 C         -7.5540564297       -0.3002143125       -1.1024065929
 C         -6.9863318947       -1.0458630082       -0.0125949646
 C         -7.2761883181       -2.2749488731        0.5501592993
 C         -6.5181647267       -2.6967892597        1.6415334667
 C         -6.7845269052       -3.9478537932        2.2346040957
 N         -6.9981214692       -4.9674897310        2.7173959260
 C         -5.4963244506       -1.8904982345        2.1716303081
 C         -5.2006164303       -0.6652237776        1.6177025464
 C         -5.9360929640       -0.2483536064        0.5131543146
 C         -3.5910706650        1.6985825524        0.0871066113
 C         -0.5988896001        1.3206711588        0.8171467916
 C         -1.3645614899        0.2871661892        1.5873433077
 C          0.7528842110        1.1932183470        0.7200193210
 C          1.6156356748        2.1988642960        0.1946715218
 C          3.0251793367        2.0375017840        0.3118133193
 C          3.9076421135        3.1271960948        0.5510033077
 C          5.2600332606        2.9351101050        0.6821171627
 C          5.8173740597        1.6640402009        0.5814668995
 C          4.9672862720        0.5717028290        0.3452717965
 N          5.5147510288       -0.7177379422        0.2357232375
 C          5.0728231560       -1.8414749229        0.9075770166
 C          4.0657008235       -1.9661605104        1.8543335826
 C          3.8402911980       -3.2182624389        2.3941006001
 C          4.5984924242       -4.3227859351        2.0120845987
 C          5.6207343304       -4.2000873528        1.0908020819
 C          5.8656425405       -2.9514929021        0.5364299924
 C          6.8311029179       -2.4612448642       -0.4092098048
 C          7.8539677099       -3.0623121135       -1.1189452087
 C          8.6070357988       -2.2727976406       -1.9867751572
 C          9.6624997725       -2.8530081227       -2.7202194926
 N         10.5228373642       -3.3246433094       -3.3166105506
 C          8.3263568309       -0.9060271597       -2.1545933541
 C          7.3082212192       -0.2989738253       -1.4537302974
 C          6.5716625930       -1.0743789517       -0.5634576457
 C          3.6079952019        0.7498520460        0.2283661874
 H          1.1245615571        4.7553379105       -1.9758353845
 H          2.0198915860        5.2326769143       -0.5441618829
 H          2.6469348088        3.9458476579       -1.5825524107
 H         -0.8431884524        4.3459975195       -0.7420778949
 H         -2.4740268634        4.8680460657        0.5788673284
 H         -4.8697034509        5.3179492902        0.4865354448
 H         -6.4852902634        3.4646218272        0.1735495497
 H         -6.5166421315        2.7566636682       -2.2418882645
 H         -8.3568525713        2.2936454026       -3.8195248372
 H         -9.6561844728        0.2237843909       -3.6728507162
 H         -9.1435356028       -1.4714841514       -1.9471889235
 H         -8.0699498874       -2.8959653919        0.1635384046
 H         -4.9436249802       -2.2458641347        3.0285269679
 H         -4.4282608622       -0.0411813080        2.0382987874
 H         -3.2544261460        0.6932474183       -0.1024126746
 H         -2.1946923095        0.7434137660        2.1215322226
 H         -0.7116594353       -0.1988285801        2.3100983813
 H         -1.7564896855       -0.4905619195        0.9303583371
 H          1.2147895909        0.3270036326        1.1714605114
 H          3.4962519290        4.1108806486        0.7027072561
 H          5.9039210230        3.7778290875        0.8865537387
 H          6.8744710024        1.5067956003        0.7246334521
 H          3.4873627335       -1.1111031020        2.1699594370
 H          3.0593404974       -3.3431016384        3.1291509034
 H          4.3875570148       -5.2851698631        2.4526845663
 H          6.2203306749       -5.0519552085        0.8086758015
 H          8.0682646089       -4.1148672480       -1.0121634544
 H          8.9224930274       -0.3337011863       -2.8494663906
 H          7.0847585903        0.7466707411       -1.5996865840
 H          2.9863035983       -0.1006578899       -0.0049326837
  80
  -124.926462598500       1.329580280296437E-002 !
 C          1.7278808703        4.5159851089       -1.1606626927
 C          0.9801473672        3.5225170651       -0.3229819901
 C         -0.3705196939        3.6500014589       -0.2086687437
 C         -1.2191472348        2.6772684098        0.3950187988
 C         -2.6315583937        2.8542360059        0.3330900440
 C         -3.2026029239        4.1572292839        0.3844727259
 C         -4.5594191984        4.3468356428        0.3094529591
 C         -5.4244099663        3.2695322443        0.1448678199
 C         -4.8819858231        1.9786756145        0.0502358802
 N         -5.7403074381        0.8872255443       -0.1757616218
 C         -6.6797081290        0.8073264340       -1.1857806420
 C         -6.9786525569        1.7211342685       -2.1868250784
 C         -7.9637090879        1.3811411525       -3.0944479096
 C         -8.6311159830        0.1602822625       -3.0215723208
 C         -8.3202661117       -0.7640863174       -2.0428587524
 C         -7.3349857534       -0.4436262813       -1.1193813096
 C         -6.7518791167       -1.1470122323       -0.0098744690
 C         -6.9765369645       -2.3914228600        0.5490768559
 C         -6.2221653733       -2.7615699663        1.6615373335
 C         -6.4199415182       -4.0280162170        2.2487873247
 N         -6.5789258550       -5.0600157255        2.7265798522
 C         -5.2713202023       -1.8884636890        2.2173916451
 C         -5.0408883604       -0.6474924825        1.6673094459
 C         -5.7688692884       -0.2825311015        0.5394673615
 C         -3.5250713038        1.7726059632        0.1577444390
 C         -0.5644983508        1.5350146182        0.9891344953
 C         -1.3160128174        0.5548940181        1.8394160525
 C          0.7859754236        1.4102799170        0.8821046816
 C          1.6351681523        2.3756368186        0.2646188407
 C          3.0444368986        2.1778679070        0.3000120291
 C          3.9839467352        3.2411555549        0.4034457743
 C          5.3353486132        3.0024578474        0.4224040605
 C          5.8378918852        1.7067201353        0.3471569628
 C          4.9308020461        0.6387226927        0.2663790720
 N          5.4148517540       -0.6800437196        0.2089596521
 C          5.0165525118       -1.7165947118        1.0304363147
 C          4.1276739241       -1.7055758066        2.0961407907
 C          3.9263169450       -2.8904338464        2.7782144190
 C          4.5935681509       -4.0594330655        2.4184389144
 C          5.4959030064       -4.0716642398        1.3721443018
 C          5.7144101637       -2.8928157182        0.6728456650
 C          6.5693832082       -2.5369049703       -0.4269204709
 C          7.4641541741       -3.2489173532       -1.2037983434
 C          8.1270145240       -2.5767234902       -2.2298723338
 C          9.0467586746       -3.2747889145       -3.0394628377
 N          9.7960954851       -3.8427774990       -3.6983905988
 C          7.8870550065       -1.2151486736       -2.4819734080
 C          6.9966711198       -0.4975634877       -1.7147154646
 C          6.3482593419       -1.1568570895       -0.6751250995
 C          3.5742986909        0.8645726392        0.2549829070
 H          2.0649416571        5.3607513603       -0.5581736261
 H          2.5943789111        4.0604329041       -1.6334728560
 H          1.0752473484        4.9128552605       -1.9362832018
 H         -0.8472395933        4.4849139826       -0.7020088505
 H         -2.5550700665        5.0051459976        0.5446386498
 H         -4.9675477969        5.3441523027        0.3831320993
 H         -6.4924844353        3.4120432882        0.1057263547
 H         -6.4522302497        2.6605756616       -2.2607921482
 H         -8.2181620669        2.0756350165       -3.8808577048
 H         -9.3957189159       -0.0671113081       -3.7486786396
 H         -8.8266923527       -1.7160901628       -1.9958128884
 H         -7.7171665213       -3.0635751453        0.1429661601
 H         -4.7211563603       -2.2049869460        3.0910316383
 H         -4.3237914850        0.0265633329        2.1078503938
 H         -3.1362926360        0.7780792293        0.0156483214
 H         -1.6681698076       -0.2939132893        1.2513399267
 H         -2.1717868568        1.0319908062        2.3112839170
 H         -0.6645890338        0.1607806156        2.6175134905
 H          1.2593867360        0.5801796816        1.3863784060
 H          3.6253022633        4.2474963956        0.5379919351
 H          6.0238686376        3.8292255448        0.5173926913
 H          6.8979557563        1.5152640217        0.3959340728
 H          3.6212664504       -0.7986169583        2.3901626877
 H          3.2387792398       -2.9101511138        3.6105227902
 H          4.4063346448       -4.9655710315        2.9741976924
 H          6.0244334394       -4.9737869996        1.1044507482
 H          7.6473537915       -4.2984858850       -1.0302469937
 H          8.4103412528       -0.7363458307       -3.2961268881
 H          6.8007223712        0.5433382207       -1.9220104719
 H          2.9075147407        0.0246492845        0.1358255200
