  80
       -125.40401814
 C          1.2293595053        4.7451194719       -0.2183678420
 C          0.5696601484        3.5257015646        0.3526418217
 C         -0.7896579669        3.4818571610        0.4075641176
 C         -1.5421616995        2.3208943275        0.7507781804
 C         -2.9641136725        2.3724174083        0.6738808820
 C         -3.6588306886        3.5782544696        0.9761695160
 C         -5.0259059510        3.6578656790        0.8931313690
 C         -5.7822252421        2.5655398968        0.4801622680
 C         -5.1180452961        1.3763825101        0.1430557244
 N         -5.8671868720        0.2791567613       -0.3199472020
 C         -6.7882015488        0.3162780585       -1.3488895574
 C         -7.1590444888        1.3774844734       -2.1630220948
 C         -8.1037068456        1.1367184595       -3.1424772197
 C         -8.6616668538       -0.1273913318       -3.3211350755
 C         -8.2784648048       -1.1934071193       -2.5301381065
 C         -7.3322309016       -0.9747876756       -1.5386443055
 C         -6.7000273824       -1.8264142750       -0.5686597287
 C         -6.8225329592       -3.1684699317       -0.2599005134
 C         -6.0505355866       -3.6793825910        0.7825014588
 C         -6.1459827861       -5.0455181756        1.1177526017
 N         -6.2213547402       -6.1581346576        1.3913353636
 C         -5.1833092528       -2.8525043831        1.5169942851
 C         -5.0547943270       -1.5151406671        1.2163655720
 C         -5.8007488864       -1.0039547900        0.1594397271
 C         -3.7489225808        1.2757918612        0.2484216242
 C         -0.7803921295        1.1477764623        1.1131010369
 C         -1.4402563317       -0.0744378704        1.6776904484
 C          0.5788319062        1.1923555310        1.0622577973
 C          1.3311893410        2.3580553645        0.7337117109
 C          2.7495913000        2.3240663655        0.8500544057
 C          3.5212728675        3.4436082740        1.2685239523
 C          4.8880001273        3.3723583707        1.3694245314
 C          5.5699027444        2.1975468529        1.0671821221
 C          4.8299168716        1.0742100586        0.6651382734
 N          5.5020983961       -0.1234295390        0.3656905778
 C          5.2010751014       -1.3676927877        0.8851723237
 C          4.2360685782       -1.7259876560        1.8159369785
 C          4.1629715664       -3.0547792722        2.1884893825
 C          5.0293675901       -4.0080854320        1.6578662350
 C          6.0073332233       -3.6538053686        0.7484565704
 C          6.0992230853       -2.3246466985        0.3596748725
 C          6.9793622035       -1.6106247765       -0.5248792661
 C          8.0382675394       -1.9958494465       -1.3257913893
 C          8.6754521252       -1.0199481929       -2.0910473665
 C          9.7620032386       -1.3797224195       -2.9147886454
 N         10.6479084651       -1.6722929056       -3.5838793054
 C          8.2477057786        0.3184502920       -2.0657956479
 C          7.1930637774        0.7116296284       -1.2723871650
 C          6.5691628975       -0.2523533526       -0.4865219868
 C          3.4586809466        1.1297822116        0.5717444617
 H          1.4122979020        5.4904813761        0.5570213173
 H          2.1765719745        4.4970675435       -0.6906289282
 H          0.5788419525        5.2048670640       -0.9604277674
 H         -1.3409601314        4.3468531701        0.0675656168
 H         -3.0983409302        4.4281395111        1.3330611738
 H         -5.5275745966        4.5773818211        1.1566829807
 H         -6.8582774652        2.6165590931        0.4339539335
 H         -6.7171169419        2.3548508458       -2.0422469628
 H         -8.4127062587        1.9457645824       -3.7870220257
 H         -9.3978425208       -0.2742203657       -4.0966724711
 H         -8.6999988361       -2.1759057936       -2.6782440730
 H         -7.4988548301       -3.8100455475       -0.8041447840
 H         -4.6167999370       -3.2824716875        2.3295389982
 H         -4.4029954361       -0.8799370535        1.7945129090
 H         -3.2674402324        0.3711434124       -0.0830986260
 H         -1.6961657376       -0.7875752573        0.8928052983
 H         -2.3466902113        0.1925224590        2.2158739228
 H         -0.7639944690       -0.5794225271        2.3651502907
 H          1.1272840379        0.3233552909        1.3961910562
 H          3.0156803797        4.3426464629        1.5779288864
 H          5.4461183478        4.2329393292        1.7077743441
 H          6.6399922965        2.1288913272        1.1809851581
 H          3.5740152545       -0.9890575290        2.2447988938
 H          3.4196682633       -3.3606079248        2.9094551805
 H          4.9376577249       -5.0367287340        1.9716664372
 H          6.6892167877       -4.3895883398        0.3503337493
 H          8.3670133950       -3.0232509952       -1.3663843845
 H          8.7579160384        1.0399455624       -2.6863326341
 H          6.8552873521        1.7366597552       -1.2697303582
 H          2.9242713515        0.2656152950        0.2084436535
