  45
        -78.68250882
 O          3.9668606364       -2.4361309982       -0.6955967046
 S          2.9876886355       -1.4206921626       -0.9868587696
 O          2.6104898188       -1.2083124629       -2.3596844534
 C          3.5412232790        0.1413141019       -0.2820950233
 C          4.4247970082        0.1365552037        0.7827528402
 C          4.7569223689        1.3498610406        1.3646740242
 C          4.1676049649        2.5001585537        0.8562560255
 N          3.3249225966        2.5010061794       -0.1634706968
 C          3.0209462419        1.3458922174       -0.7271618163
 C          1.5178657575       -1.6877574458        0.0113328252
 C          1.5559070211       -2.5184550895        1.1139897396
 C          0.4403080350       -2.5875368522        1.9352786122
 C         -0.6699705424       -1.8048015083        1.6727245080
 C         -0.6987500311       -0.9657555436        0.5574659551
 N         -1.8048133197       -0.1413805649        0.3036941937
 C         -1.6338017819        1.2438325536        0.1619339684
 C         -0.4124613575        1.8725951475        0.3696748964
 C         -0.2767118166        3.2432607224        0.2105778346
 C         -1.3680965010        4.0135865789       -0.1365834605
 C         -2.6057056164        3.4099686815       -0.2996753574
 C         -2.7432060733        2.0423524710       -0.1448054900
 O         -4.0067340362        1.5276164245       -0.2842535769
 C         -4.1523587388        0.1675566751       -0.1861246162
 C         -5.4219299246       -0.3415090365       -0.3916126928
 C         -5.6437836968       -1.7092508370       -0.3471674259
 C         -4.5827607217       -2.5624651625       -0.1207756179
 C         -3.3086699958       -2.0567011182        0.0881382324
 C         -3.0771134130       -0.6872735321        0.0876748271
 C          0.4078470283       -0.9282629199       -0.2886454910
 H          4.8390517973       -0.8013928577        1.1204782841
 H          5.4484254576        1.4014474574        2.1905981981
 H          4.3797849620        3.4722566840        1.2809942500
 H          2.3469052025        1.3777666122       -1.5714034836
 H          2.4437482786       -3.0993952112        1.3049394648
 H          0.4465211744       -3.2352002218        2.7985235758
 H         -1.5209268746       -1.8278133720        2.3374569021
 H          0.4481799938        1.2931529249        0.6662302831
 H          0.6935271730        3.6911536504        0.3578710266
 H         -1.2696839066        5.0790113489       -0.2695767953
 H         -3.4842705348        3.9847385852       -0.5453459052
 H         -6.2224520170        0.3523178003       -0.5918858359
 H         -6.6376990244       -2.0971721076       -0.5036731569
 H         -4.7332469914       -3.6307624968       -0.1086318862
 H         -2.4858316669       -2.7374301156        0.2401723146
 H          0.4070232727       -0.3189593279       -1.1780475981
