103
 energy: -157.863704286848 gnorm: 0.000063855792 xtb: 6.7.1 (edcfbbe)
C            7.12308588028056       -1.05488940207829        2.52303635508089
C            6.30217705874149       -1.66403841235047        1.37098969196033
C            6.95306429516037       -2.97384708640728        0.88735595256861
C            4.90631180734715       -1.97690443675609        1.87735487128493
C            4.74678308584109       -2.86966246416679        2.92940021105220
C            3.50094190091090       -3.21209628833317        3.42187030722471
C            2.37148930561777       -2.65937272448643        2.84573529189585
C            2.50118479309548       -1.76965754935564        1.79931426385016
C            3.76048965138260       -1.40815731899990        1.31220665053553
N            3.86123305004089       -0.50079989329152        0.26358053000176
C            2.67545867485321        0.01713307164131       -0.31243817619703
C            1.96609340415386        1.02026225458840        0.33851024405680
C            0.78391262591361        1.51658496035051       -0.20482545403302
N            0.03023754418293        2.49678024934533        0.47876247936471
C           -1.20600311785030        2.13541261439532        1.00698508482737
C           -1.62007358039096        0.80040132967109        0.96238013963605
C           -2.83693811849782        0.41336228112772        1.48366084099711
C           -3.66853171796626        1.35442430239321        2.06316357327891
C           -3.25056151455493        2.67045184458066        2.13196471666775
C           -2.02537354673724        3.08538438010766        1.62548176895520
C           -1.61247034514790        4.53702284917382        1.77906439167695
C           -1.57325850117969        4.87830166116747        3.28068646155087
C           -2.64277279204427        5.42493569840927        1.05603189174565
C           -0.24335568062539        4.80223674998774        1.18163431675935
C            0.28575593142015        6.08556832759737        1.23526818338625
C            1.51231669819319        6.39976410005145        0.68047490169761
C            2.23325574106040        5.41232928411502        0.03345267823862
C            1.73152723078128        4.12905809177208       -0.03285563354239
C            0.50523555202182        3.80277682647143        0.55248160964094
C            0.31966100317450        1.00491666064853       -1.41335034974480
C            1.02512736853266       -0.00251991112291       -2.03921607155810
S            0.24308640139016       -0.77139143395605       -3.46841919026316
O            1.02459492092277       -1.92626838559973       -3.85486177300638
O            0.00929144338495        0.22903804208723       -4.48769562607272
C           -1.30576283681759       -1.26640559606438       -2.73156273728618
C           -2.48666473468072       -0.62819922190920       -3.09411147716232
C           -3.66096212671824       -0.89048442489089       -2.41740708856952
C           -3.61278411648458       -1.78945680925547       -1.35636312612360
C           -2.40757316589365       -2.45782686978028       -1.00648302071814
C           -1.24089248597405       -2.18343817303046       -1.70248114531342
C           -2.72405481207276       -3.31377962380347        0.10108473063657
C           -1.97257250283907       -4.18084499240297        0.88598792660040
C           -2.60168255414018       -4.84319166512083        1.92075000107958
C           -3.95669265239359       -4.64330772808470        2.18371541893114
C           -4.72339168507673       -3.78604851267005        1.41796520023698
C           -4.10091390635964       -3.12930623260070        0.36517374809015
N           -4.61852376389433       -2.20824925322058       -0.52588618451390
C           -5.94833502118511       -1.74162382258767       -0.54180825198616
C           -7.00230737320790       -2.64389886887733       -0.63270156990977
C           -8.30539671800767       -2.17865936778301       -0.63798036794654
C           -8.56132662618804       -0.81929244082832       -0.56087902049937
C           -7.50965751891187        0.07849690262347       -0.47298548455754
C           -6.20339041626045       -0.37686693499055       -0.45956897655266
C            2.19259464551393       -0.50833998123412       -1.50991441521162
C            5.08700806391188       -0.14704925318783       -0.28588596108553
C            5.13270045200735        0.77727777936167       -1.33322174966297
C            6.33438350565340        1.15450495989057       -1.89594545099335
C            7.51629060222458        0.62052668623213       -1.41486249262532
C            7.47381693419772       -0.28062094660401       -0.36692635305873
C            6.27835110144485       -0.67943045498879        0.21657178349826
H            7.17440148708574       -1.73926099551882        3.36508890397999
H            8.13710680672897       -0.83455537929725        2.20183445574299
H            6.66014581246956       -0.12881601212879        2.85956975275694
H            7.96134975111438       -2.79448274664969        0.52498803833593
H            7.00510806250842       -3.70168121176170        1.69214214310551
H            6.36733178126141       -3.40108603530821        0.07497690887683
H            5.61916886204432       -3.31640319922775        3.38123099432339
H            3.41478242917981       -3.90828634796567        4.24236252247987
H            1.38698548737803       -2.91766125950778        3.20696585142665
H            1.61354821003322       -1.34953615154065        1.35241763091521
H            2.32736934905019        1.40471222886047        1.28105857671954
H           -0.98293844444477        0.05171725330464        0.51779679346754
H           -3.12478755174694       -0.62598967395447        1.44257471598946
H           -4.62626547507003        1.06585374487397        2.46904490953726
H           -3.90045744537735        3.39273721337195        2.60144428398404
H           -2.54316473905062        4.71488875518434        3.74163238783829
H           -0.84263509590534        4.24798509739117        3.78473630659167
H           -1.29440022881936        5.91677733819379        3.43450262909683
H           -2.66143917405424        5.18192070853313       -0.00512582235535
H           -2.39065428209199        6.47616978958610        1.16205305211656
H           -3.63870114982980        5.27148507282105        1.46171878068525
H           -0.27456714427521        6.86974407064087        1.72089379630265
H            1.89442817799718        7.40744472371329        0.74306093986495
H            3.18541438552508        5.63659012180302       -0.42436804995168
H            2.29491716700141        3.37070235549429       -0.55380074705640
H           -0.59428038229503        1.37124387036030       -1.85371330997862
H           -2.45346896196396        0.07216486707475       -3.91395911905372
H           -4.58335265421559       -0.40893688034157       -2.70085845765750
H           -0.30357505194132       -2.66226212365541       -1.46707206597315
H           -0.92165174069087       -4.32579367109895        0.68681330822524
H           -2.03844898921211       -5.52277030071360        2.54274630796415
H           -4.41653380955826       -5.16867040265377        3.00756619841678
H           -5.76768222647213       -3.62586434498353        1.63716465953219
H           -6.79540293484496       -3.70106292410433       -0.70791151056671
H           -9.12272383848867       -2.88076222786965       -0.70894407715225
H           -9.57950199894352       -0.46042191864047       -0.56827861677953
H           -7.70577353704414        1.13836088771982       -0.40810543567157
H           -5.37849952601546        0.31428627836546       -0.37040581666952
H            2.70639497755725       -1.30734092566707       -2.02149316984767
H            4.21531794923371        1.20182078796099       -1.71208667069069
H            6.34318319531899        1.86645887908785       -2.70823618809389
H            8.46345367889264        0.90610319351408       -1.84701232339758
H            8.40446124224188       -0.68287042199464        0.00315772731195
