103
 energy: -157.770375019170 gnorm: 0.000045727353 xtb: 6.7.1 (edcfbbe)
C            5.80024097762998       -2.05269404714829        2.98328566086648
C            5.34652665357464       -2.21461308469044        1.51885053847939
C            6.13638982003148       -3.35290678935179        0.84187464767522
C            3.87533407039651       -2.56994002361857        1.50213657152788
C            3.43577880379601       -3.72117520336007        2.14258501458275
C            2.10182579669824       -4.08559241109917        2.15903329712805
C            1.16372309593193       -3.28461101690244        1.52303563433654
C            1.56999283130327       -2.14084769470561        0.87504196814156
C            2.92289767886270       -1.76888948572725        0.84998966475221
N            3.29824389181148       -0.61767008090775        0.19333900528488
C            2.29457698473544        0.15956153569088       -0.45689151322096
C            1.75662910436780        1.26817220964361        0.22851047486009
C            0.73615057184509        2.00558151112520       -0.40847178410992
N            0.14439374042894        3.09743272433850        0.29373792488213
C           -0.90974922824988        2.83909797247604        1.14185670576299
C           -1.32512293642354        1.51396748454770        1.34159283902529
C           -2.37342809518354        1.22299594906008        2.18439929049192
C           -3.03902520397286        2.25042292561317        2.83765765245327
C           -2.63464392206531        3.55847767928953        2.64222987508941
C           -1.57209626759581        3.88285714485783        1.80868880290221
C           -1.16593762924816        5.33067998457018        1.63457419247796
C           -0.79183844585597        5.90851299033147        3.01414526983788
C           -2.35619373174068        6.10902214916690        1.03914572936979
C            0.02120126862716        5.47854288415463        0.70694933082100
C            0.54351237253684        6.73838930038101        0.44636939672275
C            1.62594253684994        6.92218216923542       -0.39465483862963
C            2.21633376204266        5.82358178063997       -1.00373833236512
C            1.71804484156976        4.56275834950308       -0.76884383850968
C            0.61861143407448        4.37171384296864        0.08113112404055
C            0.28847894052420        1.67510801151863       -1.65990018458054
C            0.85892822059609        0.57929048772113       -2.34475490466787
S           -0.01957403639872       -0.11799584551291       -3.68887146953004
O            0.82837141096914       -1.09887449106161       -4.35521403420170
O           -0.56440439081276        0.94362286956410       -4.52655638268613
C           -1.35777553347165       -0.94658614127489       -2.87055437691609
C           -2.54877035565333       -0.24281516781623       -2.65707873366138
C           -3.52413616148341       -0.73476059511467       -1.81608411815847
C           -3.27541754959569       -1.93972485189435       -1.16359670605458
C           -2.07702129256876       -2.66993954213882       -1.39537682164006
C           -1.10789299077993       -2.16075559907959       -2.24246059071776
C           -2.17839975876031       -3.87195512725761       -0.61570758555855
C           -1.33203252446628       -4.95638027141006       -0.42117914876977
C           -1.72856897641006       -5.95981359109521        0.44490643513927
C           -2.94313751867700       -5.88318119967946        1.12173073877950
C           -3.80499804302357       -4.81489617895841        0.94051540969730
C           -3.42570667927304       -3.81701752437302        0.05264227837829
N           -4.07624137635398       -2.64722995557041       -0.28709960545069
C           -5.33578768406096       -2.24240034323430        0.17706403763898
C           -6.41797923353795       -3.11939857764904        0.12722974054189
C           -7.65620384624569       -2.71542290973737        0.59013755507342
C           -7.83163457191489       -1.43793856425924        1.09895000993142
C           -6.75783583555567       -0.56236902890925        1.14384881723444
C           -5.51421124667341       -0.95857689033269        0.68959448345606
C            1.85423692452148       -0.19194165431014       -1.70574265289661
C            4.60779179641779       -0.19673570732369        0.14150665736841
C            4.92616183520958        0.97598947058120       -0.55994898548345
C            6.22367832678392        1.42991904146746       -0.62195428087388
C            7.23356222067905        0.71874885462209        0.01095052640115
C            6.92671720493959       -0.44505472964027        0.69221236203653
C            5.62712963789877       -0.92710532395243        0.77463756476774
H            5.63302513825019       -2.96907876204342        3.54093404715342
H            6.85734111664693       -1.81035259325283        3.03369649572381
H            5.23860142615767       -1.25131991348518        3.45931182825111
H            7.20095179241706       -3.13908746045120        0.84755648184296
H            5.97340441834918       -4.29429647721210        1.35786032186997
H            5.81310854296656       -3.46563359301049       -0.19152467668625
H            4.15024625607410       -4.35524134745426        2.64361479560587
H            1.79290987625470       -4.98746307743349        2.66464170785095
H            0.11939973089261       -3.55628907535606        1.52434719181463
H            0.84426348214750       -1.52538508397909        0.36790730833742
H            2.10052411639208        1.53280118103242        1.21345979071876
H           -0.81288874468741        0.71878748807201        0.82500903183936
H           -2.66995710611705        0.19569651734696        2.33336817948843
H           -3.86631708675910        2.03222262178874        3.49542082901998
H           -3.16465514033020        4.34442247387722        3.15694669589644
H           -1.62948105476903        5.83719900614798        3.70115442977806
H            0.04669127962281        5.35545474321392        3.43277211650333
H           -0.50823263185734        6.95307200418689        2.93002077182628
H           -2.61733621252931        5.70039710527526        0.06456759440566
H           -2.10616530151805        7.15852760570587        0.91588860250147
H           -3.22533763342798        6.03756189927242        1.68624665706708
H            0.09709812332835        7.60493926397601        0.90839643192840
H            2.00701708503484        7.91548459031195       -0.57555297369271
H            3.06204158587115        5.95184990753782       -1.66204824224815
H            2.16588461242392        3.70524153414614       -1.24507425941647
H           -0.49600893803174        2.23172583341505       -2.14763411671876
H           -2.68386650031057        0.68475224995181       -3.19146792373593
H           -4.45377087735641       -0.20396035752695       -1.68058742646945
H           -0.18316017859385       -2.67858630746790       -2.44328504851435
H           -0.38405735011513       -5.00603730815507       -0.93553657506155
H           -1.08450105745860       -6.81154478755155        0.60694363061356
H           -3.21969051309025       -6.67351034533969        1.80401888242284
H           -4.73705080429137       -4.75862043915273        1.48156449310445
H           -6.28489710228027       -4.10495523431989       -0.29323905528912
H           -8.49110355564497       -3.39921438108954        0.54457156095151
H           -8.80130942314192       -1.12559706775458        1.45612536950186
H           -6.88744565443590        0.43368212999652        1.54077556222062
H           -4.67332066715453       -0.28358651488230        0.73657508502964
H            2.25235864562689       -1.04549701648970       -2.23117413359236
H            4.13875923571915        1.51673550709540       -1.05976146386296
H            6.44967331581380        2.33459002976086       -1.16555327636313
H            8.25434039669296        1.06627013494561       -0.03222704145458
H            7.72666381434255       -0.98925936594901        1.16915624100867
