  101
       -156.53705279
 C         -7.8526164197        8.1891995465       -0.9957710541
 C         -8.4538362729        6.9791233421       -0.6915942829
 C         -7.6804498243        5.8631050841       -0.4345583156
 C         -6.2888962062        5.9392547589       -0.4713368476
 C         -5.4664839108        4.7570180888       -0.1926351933
 C         -5.8397893239        3.4957105526       -0.6596272371
 C         -5.0691191008        2.3834706852       -0.4035413762
 C         -3.8932627167        2.4952169291        0.3447471496
 N         -3.1146009530        1.3789988184        0.6219004805
 C         -1.7252248339        1.4777318086        0.6615600966
 C         -1.0403474063        2.3165914362       -0.2217443690
 C          0.3366569131        2.3345775491       -0.2375360865
 C          1.0818789191        1.5207041549        0.6187399703
 C          2.5436269975        1.4939207953        0.5430372844
 C          3.2290490248        0.2804926483        0.7161706421
 C          4.5998579558        0.1913299730        0.6060748019
 C          5.3096833973        1.3512301151        0.3224823868
 C          4.6420326910        2.5918246134        0.1872419372
 C          3.2627791697        2.6571013301        0.2860872566
 C          5.6607517789        3.5789558066       -0.0420015620
 C          5.6302552415        4.9493936553       -0.2607059416
 C          6.8229575601        5.6106532239       -0.4781498667
 C          8.0322040106        4.9194727045       -0.4951794850
 C          8.0875643940        3.5552964358       -0.2801307484
 C          6.8950976346        2.8898000810       -0.0355876015
 N          6.6659331333        1.5449383484        0.1856961504
 C          7.6474029887        0.5446573410        0.2508800428
 C          7.5144578367       -0.6138007973       -0.5089546073
 C          8.4819391431       -1.5987816579       -0.4388445928
 C          9.5892780844       -1.4337869850        0.3765587662
 C          9.7245840258       -0.2794289250        1.1296585191
 C          8.7571475651        0.7067688803        1.0746782680
 C          0.3894459588        0.7152478157        1.5268968813
 C         -0.9857153798        0.6955819593        1.5546167297
 C         -3.7009544982        0.1141701464        0.7829279899
 C         -4.9488283211       -0.0248657789        1.4094216508
 C         -5.4942321955       -1.2950374694        1.5534573879
 C         -4.8219120225       -2.4168762306        1.1260143365
 C         -3.5500842138       -2.2942528577        0.5253635806
 C         -2.7752642135       -3.4202714689        0.1345946351
 N         -3.2763508038       -4.6764228183        0.2200877284
 C         -2.5010222401       -5.6791548504       -0.1131551100
 C         -3.0374298130       -7.0328997928       -0.0409947081
 C         -2.2267752971       -8.1288165048       -0.3390153886
 C         -2.7389440447       -9.4089649905       -0.2718381281
 C         -4.0616132083       -9.6131223258        0.0908043067
 C         -4.8729999147       -8.5275247847        0.3875639079
 C         -4.3677062767       -7.2453193805        0.3238196290
 N         -1.2280097788       -5.5225066980       -0.5187435017
 C         -0.7671405892       -4.2537405056       -0.5864325551
 C          0.6108413514       -4.0326562585       -0.9970264667
 C          1.4330244534       -5.1139425205       -1.3224286534
 C          2.7425575391       -4.9011129365       -1.7019850743
 C          3.2504173015       -3.6120265713       -1.7677505782
 C          2.4386411263       -2.5317983862       -1.4499677704
 C          1.1305794354       -2.7366515883       -1.0634808714
 N         -1.5064609437       -3.2160970924       -0.2869432942
 C         -3.0260372096       -1.0059896914        0.3332211891
 C         -3.5151268241        3.7557493605        0.8177957486
 C         -4.2876220367        4.8630542506        0.5477783839
 C         -5.6952604466        7.1632522807       -0.7764572440
 C         -6.4709662419        8.2764205394       -1.0387233891
 H         -8.4579029606        9.0602157979       -1.1983768849
 H         -9.5309384017        6.9061222624       -0.6524851791
 H         -8.1561601611        4.9274973735       -0.1792181577
 H         -6.7317132669        3.3935618225       -1.2596967147
 H         -5.3573442773        1.4194781424       -0.7948785810
 H         -1.5989715250        2.9194881814       -0.9227643965
 H          0.8467158869        2.9538512739       -0.9602251036
 H          2.6621879059       -0.6166355382        0.9134347339
 H          5.1014005138       -0.7546315068        0.7427898207
 H          2.7570415625        3.6061712189        0.1930139958
 H          4.6912534981        5.4820893943       -0.2633218082
 H          6.8223657513        6.6771294220       -0.6470115286
 H          8.9472091764        5.4610372366       -0.6841490925
 H          9.0279072089        3.0262960599       -0.3142434937
 H          6.6610472245       -0.7283131839       -1.1604353744
 H          8.3746371202       -2.4958988141       -1.0301592754
 H         10.3447902803       -2.2031207814        0.4253647430
 H         10.5839052342       -0.1490637950        1.7705365658
 H          8.8467349638        1.5973744781        1.6786225463
 H          0.9401420832        0.1103342814        2.2310518671
 H         -1.5057011752        0.0696161793        2.2639412989
 H         -5.4625787897        0.8435252943        1.7917211914
 H         -6.4583362024       -1.3976285557        2.0306884374
 H         -5.2411384397       -3.4021284752        1.2522030235
 H         -1.1999628766       -7.9526096973       -0.6197944440
 H         -2.1074799471      -10.2548731777       -0.5028658723
 H         -4.4602901873      -10.6159671044        0.1417437637
 H         -5.9041095476       -8.6873154448        0.6687771105
 H         -4.9859998020       -6.3900704302        0.5494302915
 H          1.0223841720       -6.1103223649       -1.2700656424
 H          3.3743812909       -5.7418572670       -1.9504498867
 H          4.2753956516       -3.4487119121       -2.0682505119
 H          2.8324080290       -1.5264616288       -1.5053209877
 H          0.4915998745       -1.9047051561       -0.8073519201
 H         -2.0826364754       -0.9119156477       -0.1808318607
 H         -2.6197757026        3.8502418445        1.4147671212
 H         -3.9924661408        5.8234083229        0.9435726772
 H         -4.6186772235        7.2343933600       -0.8311046665
 H         -5.9964270208        9.2162003916       -1.2812025731
