96
 energy: -152.954064938204 gnorm: 0.000054438082 xtb: 6.7.1 (edcfbbe)
C            5.21209643752838       -4.84036361652004       -1.22409589332731
C            5.77708086638476       -4.36089320488877       -0.05393689974986
C            5.49086306505171       -3.08481160265284        0.39080861936402
C            4.63488445326532       -2.26093177675279       -0.33939084284116
N            4.32765248843420       -0.97497868906047        0.11902385824326
C            5.31551295886826       -0.19502057118996        0.73022746439630
C            5.00213584224951        0.63309960107869        1.80848180384033
C            5.97559478490284        1.42261922853330        2.38705748343788
C            7.27748174755113        1.39165788125102        1.91473219810243
C            7.59841758207739        0.55935208358186        0.85521201629573
C            6.62879412885347       -0.22558510446973        0.26211393733343
C            3.03386361435638       -0.46877796492562       -0.03732455015365
C            2.84167450295199        0.89293796526590       -0.23617472378217
C            1.55160927396745        1.40475625510424       -0.35013737000878
C            0.43611315268582        0.54421586354061       -0.34899692990760
C            0.66054314062286       -0.83664191984131       -0.19641743193973
C            1.94374830819587       -1.33280198366160        0.00256575065669
N           -0.41535638145735       -1.70466007234260       -0.24109737849105
C           -0.09963557687323       -3.09309458248639       -0.31737161320635
C           -0.15076686547971       -3.89725966242213        0.81432370843711
C            0.21014731526287       -5.22987728872109        0.72719986388472
C            0.62758485627266       -5.76085319978894       -0.48207054721871
C            0.67715235463909       -4.95913135421161       -1.60981230064316
C            0.31346209094971       -3.62690538488973       -1.53086921823456
C           -1.73250759024989       -1.30572985673042       -0.17668931498276
C           -2.72197435347168       -2.29498118865992       -0.10059742215688
C           -4.04424528591290       -1.94312989625047        0.07402522252783
C           -4.43000974154258       -0.59889177105971        0.22189849223880
C           -3.42653874613820        0.36949511815635        0.09431867967089
C           -2.08019971151240        0.06749547365918       -0.18639542886910
B           -0.96911886046727        1.09146924692468       -0.50231311134496
C           -1.02096793228336        2.56122308169828       -0.97651529459490
C           -2.13976080197259        3.18694067836680       -1.53896387112629
C           -2.15534950643081        4.52379061157273       -1.86690639814032
C           -1.02861104678585        5.29770416384841       -1.61842665450162
C            0.11592849147135        4.71083317673202       -1.13002148665678
C            0.15579464352152        3.33654102219326       -0.85793363110513
N            1.35941553050574        2.76369228666818       -0.48094519141072
C            2.49948025868029        3.59009832268486       -0.26263159038978
C            3.22666523232928        4.09814735356745       -1.33221050597847
C            4.35793714656340        4.85832851958747       -1.09559997306406
C            4.77073136806269        5.10755509438887        0.20287948747732
C            4.04607679447577        4.60130214255718        1.26854555514131
C            2.91096324093115        3.84493912587496        1.03917640554500
O           -3.72277439465934        1.67252937472352        0.28654954426770
C           -4.99142035618946        2.12564126865913        0.44399834922115
C           -5.09120896464128        3.51940364709276        0.51457050555290
C           -6.32406423825515        4.11692759879353        0.62786195970744
C           -7.47112190990570        3.33047523780942        0.66134152860294
C           -7.36587243942678        1.95892815695787        0.60782004162313
C           -6.13083759455134        1.30139447527336        0.51814982088361
B           -5.87839385609256       -0.22559992336011        0.49048627561713
C           -6.81127859137700       -1.45120524888176        0.67927944706340
C           -8.15831579501307       -1.42728038075374        1.06373944514510
C           -8.91896919815071       -2.57037612913608        1.17463928282311
C           -8.35124467258967       -3.80882125167003        0.90073458729359
C           -7.02415601448879       -3.88517860712621        0.54578830770711
C           -6.25455322757894       -2.72333365845093        0.44792057407337
O           -4.94993422355148       -2.94895310477888        0.12846009368709
C            4.08217811574475       -2.74378652141472       -1.52598869355745
C            4.36520730643761       -4.02456627845716       -1.95632430490495
H            5.43229138052668       -5.84093205778990       -1.56402852448693
H            6.43869439744524       -4.98938866065958        0.52408701544882
H            5.92301529160459       -2.71800916309505        1.31044988829977
H            3.99054448880567        0.65140234973945        2.18577545559756
H            5.71746806637926        2.06021260023252        3.21981796366251
H            8.03654001619389        2.00928877740326        2.37030364349586
H            8.61070867284562        0.52822456813266        0.47948996793803
H            6.87941982824757       -0.86405132771847       -0.57250946906802
H            3.70201225709671        1.53951926853350       -0.30267988740034
H            2.11225884420708       -2.38128401908476        0.18840838113329
H           -0.46963279226757       -3.47057325660642        1.75377022462595
H            0.17146266431664       -5.85375792117222        1.60767375160744
H            0.91529320893679       -6.79943480943782       -0.54457076725896
H            1.00020926486953       -5.37222856136602       -2.55344139934044
H            0.35296069784378       -2.98955962576989       -2.40166304674711
H           -2.47271206858972       -3.34163533351997       -0.16296368532471
H           -3.01758504712248        2.59135222889429       -1.73117037351433
H           -3.03884899186403        4.97233676513918       -2.29743423119665
H           -1.03825704017998        6.35811131269968       -1.82639468367252
H            0.99379756257195        5.31879193270890       -0.96913235921856
H            2.90130550290051        3.88976135731212       -2.34089730430067
H            4.92273293287388        5.25145414177198       -1.92784617666719
H            5.65819715480389        5.69513304872756        0.38343241547680
H            4.36600904881600        4.79565972863396        2.28121897981134
H            2.33995147377141        3.44016742919501        1.86158066603239
H           -4.18187710115426        4.09841834176984        0.46177348558701
H           -6.40109802972272        5.19306116239017        0.67786760525058
H           -8.44257492968940        3.79797985696880        0.72960965096964
H           -8.26850730786138        1.36892395255145        0.61951671056565
H           -8.61347427354282       -0.47783808393082        1.29630391252325
H           -9.95505181299359       -2.50643875607855        1.47335661511653
H           -8.94316239647586       -4.70897476472735        0.97672860524926
H           -6.54829049846238       -4.83331013172453        0.34616492181726
H            3.43004582170229       -2.10635820679672       -2.10429919182385
H            3.92854949641636       -4.38509840390610       -2.87606949770920
