  62
  -201.629375770000       0.501388877153770      !
 F         -1.2106164506        0.3732201373       -3.6461298317
 C         -0.6740544642        0.2706550041       -2.4295557238
 C          0.6388041826        0.4709928671       -2.2167329150
 F          1.5451384306        0.7967398416       -3.1291717203
 C          1.0330479083        0.5899153201       -0.7513477284
 C          2.4020621467       -0.0059870519       -0.4608979756
 C          3.2253514137        0.4387831606        0.5751886063
 F          2.8449003795        1.4407017812        1.3627841885
 C          4.4785251359       -0.1169804292        0.8242932788
 F          5.2168237146        0.3543685304        1.8205316050
 C          4.9497277787       -1.1609438327        0.0355415425
 F          6.1368405661       -1.7032854420        0.2670963206
 C          4.1460094251       -1.6333128257       -0.9964358137
 F          4.5497372938       -2.6509289122       -1.7527115636
 C          2.9013041563       -1.0578928300       -1.2302832749
 F          2.1673895489       -1.5859674447       -2.2194138715
 C          1.0445020652        2.1244035993       -0.7183294401
 C          2.1919590508        2.8499091501       -1.0544083384
 F          3.3511340004        2.2406258303       -1.3297660288
 C          2.1994484894        4.2399451509       -1.1543772045
 F          3.3332021303        4.8614697549       -1.4517988845
 C          1.0290875772        4.9656459528       -0.9694790381
 F          1.0253424203        6.2868980641       -1.0689184728
 C         -0.1459822162        4.2675790022       -0.7098382961
 F         -1.2986292778        4.9127077382       -0.5755397269
 C         -0.1239191653        2.8814969051       -0.6085843746
 F         -1.3020758064        2.2783634329       -0.3977305296
 C         -0.1494868296       -0.2076479209       -0.0182511985
 C          0.3270200731       -1.6710934826        0.0451105883
 C         -0.0751168555       -2.6559632902       -0.8533988215
 F         -0.9612691260       -2.3770731675       -1.8058581464
 C          0.3877246947       -3.9703346865       -0.7949557978
 F         -0.0379540565       -4.8547287747       -1.6861956274
 C          1.2873983697       -4.3506414216        0.1946066342
 F          1.7497399077       -5.5907017896        0.2550870865
 C          1.6823847403       -3.3994399134        1.1296852907
 F          2.5385075393       -3.7184044929        2.0975800354
 C          1.1939664432       -2.0990773181        1.0545332677
 F          1.6024675732       -1.2527496200        2.0136429570
 C         -0.5751325913        0.1108412100        1.4139467565
 C         -0.2498904128        1.1905104059        2.2297170640
 F          0.5437495773        2.1863531923        1.8287539932
 C         -0.7349472490        1.3296722518        3.5332263806
 F         -0.3698853849        2.3946027058        4.2368766537
 C         -1.5788526169        0.3802271065        4.0874110434
 F         -2.0346497430        0.5040874992        5.3260525515
 C         -1.9402959967       -0.7065009988        3.2976787309
 F         -2.7611196308       -1.6413731002        3.7677809398
 C         -1.4485940853       -0.8173646421        2.0052839047
 F         -1.8837085983       -1.8823687116        1.3021504091
 B         -1.3818084669       -0.0490380708       -1.1006057011
 C         -2.9367760914       -0.1793567934       -0.9566978716
 C         -3.7134916135        0.3993832615        0.0529758845
 F         -3.1389527590        1.1316066422        1.0196454130
 C         -5.0988967663        0.2937672904        0.1049325321
 F         -5.7698887374        0.8751746971        1.0958585575
 C         -5.7782852371       -0.4205578445       -0.8774498547
 F         -7.0988971897       -0.5357476426       -0.8361937071
 C         -5.0469675469       -1.0027090110       -1.9080005125
 F         -5.6726879292       -1.6805912212       -2.8663365524
 C         -3.6621214608       -0.8660897683       -1.9435772083
 F         -3.0277988158       -1.4397082517       -2.9584906792
  62
  -201.629370520000       0.498611122846230      !
 F         -1.2125994713        0.3883369570       -3.6560557173
 C         -0.6742493425        0.2856492337       -2.4403671398
 C          0.6384234056        0.4879483992       -2.2276102050
 F          1.5436583691        0.8187271336       -3.1393560772
 C          1.0358028191        0.5991049470       -0.7625305499
 C          2.4010847733       -0.0077853248       -0.4766216502
 C          3.2247642862        0.4220096717        0.5656853827
 F          2.8466590039        1.4173560300        1.3626523946
 C          4.4741595933       -0.1434207495        0.8110104592
 F          5.2150975056        0.3133586463        1.8121290423
 C          4.9397480592       -1.1834739399        0.0133974136
 F          6.1233157402       -1.7347035400        0.2424411009
 C          4.1344786653       -1.6424664089       -1.0232162726
 F          4.5319461191       -2.6569726774       -1.7869215004
 C          2.8939959131       -1.0564734275       -1.2541807825
 F          2.1577806690       -1.5718645646       -2.2480334256
 C          1.0552305944        2.1329697820       -0.7208510581
 C          2.2085253956        2.8565974776       -1.0398756283
 F          3.3673714232        2.2451486051       -1.3114847010
 C          2.2227703900        4.2476363228       -1.1244449051
 F          3.3621490430        4.8677157974       -1.4028101399
 C          1.0536946758        4.9763975274       -0.9432804116
 F          1.0570402781        6.2986498450       -1.0273226975
 C         -0.1270698636        4.2805807406       -0.7039169451
 F         -1.2784188573        4.9289837421       -0.5748187820
 C         -0.1116372764        2.8934486829       -0.6162633568
 F         -1.2941257220        2.2930022067       -0.4216575327
 C         -0.1476799714       -0.1955239778       -0.0287311542
 C          0.3276166688       -1.6591845365        0.0421022969
 C         -0.0649315782       -2.6456108011       -0.8589189876
 F         -0.9333459448       -2.3670861537       -1.8273304064
 C          0.3904072543       -3.9620973143       -0.7877886248
 F         -0.0267423260       -4.8481809511       -1.6814466918
 C          1.2728186118       -4.3428313843        0.2169126559
 F          1.7257551128       -5.5855596564        0.2912541752
 C          1.6615445077       -3.3886589610        1.1517261999
 F          2.5025742098       -3.7077128724        2.1326262684
 C          1.1814898727       -2.0861251541        1.0632927081
 F          1.5847523701       -1.2364885799        2.0215367745
 C         -0.5784084284        0.1281622147        1.4010044747
 C         -0.2538153193        1.2080819127        2.2170132402
 F          0.5507119574        2.1977535761        1.8221365604
 C         -0.7497503654        1.3533482913        3.5156323282
 F         -0.3861684013        2.4188864731        4.2192588084
 C         -1.6025861942        0.4096016817        4.0660151370
 F         -2.0682311739        0.5403489314        5.3001279357
 C         -1.9605270311       -0.6788770454        3.2773461118
 F         -2.7879207634       -1.6101480201        3.7429457648
 C         -1.4585732116       -0.7956089978        1.9893124836
 F         -1.8903318997       -1.8635235636        1.2880273713
 B         -1.3795142167       -0.0376585237       -1.1117598526
 C         -2.9325145716       -0.1815869464       -0.9608266809
 C         -3.6540184442       -0.8936614785       -1.9320150317
 F         -3.0196906514       -1.4617015298       -2.9501746109
 C         -5.0348883567       -1.0623863972       -1.8765911239
 F         -5.6559251518       -1.7683408955       -2.8174666191
 C         -5.7662368180       -0.4842232178       -0.8439929883
 F         -7.0828670416       -0.6316845949       -0.7820782471
 C         -5.0919131021        0.2617479916        0.1184517113
 F         -5.7645134211        0.8431455851        1.1082178751
 C         -3.7100804008        0.3972500863        0.0482228821
 F         -3.1400862019        1.1585784585        0.9952094088
