  62
       -201.62937577
 F         -1.2106164506        0.3732201373       -3.6461298317
 C         -0.6740544642        0.2706550041       -2.4295557238
 C          0.6388041826        0.4709928671       -2.2167329150
 F          1.5451384306        0.7967398416       -3.1291717203
 C          1.0330479083        0.5899153201       -0.7513477284
 C          2.4020621467       -0.0059870519       -0.4608979756
 C          3.2253514137        0.4387831606        0.5751886063
 F          2.8449003795        1.4407017812        1.3627841885
 C          4.4785251359       -0.1169804292        0.8242932788
 F          5.2168237146        0.3543685304        1.8205316050
 C          4.9497277787       -1.1609438327        0.0355415425
 F          6.1368405661       -1.7032854420        0.2670963206
 C          4.1460094251       -1.6333128257       -0.9964358137
 F          4.5497372938       -2.6509289122       -1.7527115636
 C          2.9013041563       -1.0578928300       -1.2302832749
 F          2.1673895489       -1.5859674447       -2.2194138715
 C          1.0445020652        2.1244035993       -0.7183294401
 C          2.1919590508        2.8499091501       -1.0544083384
 F          3.3511340004        2.2406258303       -1.3297660288
 C          2.1994484894        4.2399451509       -1.1543772045
 F          3.3332021303        4.8614697549       -1.4517988845
 C          1.0290875772        4.9656459528       -0.9694790381
 F          1.0253424203        6.2868980641       -1.0689184728
 C         -0.1459822162        4.2675790022       -0.7098382961
 F         -1.2986292778        4.9127077382       -0.5755397269
 C         -0.1239191653        2.8814969051       -0.6085843746
 F         -1.3020758064        2.2783634329       -0.3977305296
 C         -0.1494868296       -0.2076479209       -0.0182511985
 C          0.3270200731       -1.6710934826        0.0451105883
 C         -0.0751168555       -2.6559632902       -0.8533988215
 F         -0.9612691260       -2.3770731675       -1.8058581464
 C          0.3877246947       -3.9703346865       -0.7949557978
 F         -0.0379540565       -4.8547287747       -1.6861956274
 C          1.2873983697       -4.3506414216        0.1946066342
 F          1.7497399077       -5.5907017896        0.2550870865
 C          1.6823847403       -3.3994399134        1.1296852907
 F          2.5385075393       -3.7184044929        2.0975800354
 C          1.1939664432       -2.0990773181        1.0545332677
 F          1.6024675732       -1.2527496200        2.0136429570
 C         -0.5751325913        0.1108412100        1.4139467565
 C         -0.2498904128        1.1905104059        2.2297170640
 F          0.5437495773        2.1863531923        1.8287539932
 C         -0.7349472490        1.3296722518        3.5332263806
 F         -0.3698853849        2.3946027058        4.2368766537
 C         -1.5788526169        0.3802271065        4.0874110434
 F         -2.0346497430        0.5040874992        5.3260525515
 C         -1.9402959967       -0.7065009988        3.2976787309
 F         -2.7611196308       -1.6413731002        3.7677809398
 C         -1.4485940853       -0.8173646421        2.0052839047
 F         -1.8837085983       -1.8823687116        1.3021504091
 B         -1.3818084669       -0.0490380708       -1.1006057011
 C         -2.9367760914       -0.1793567934       -0.9566978716
 C         -3.7134916135        0.3993832615        0.0529758845
 F         -3.1389527590        1.1316066422        1.0196454130
 C         -5.0988967663        0.2937672904        0.1049325321
 F         -5.7698887374        0.8751746971        1.0958585575
 C         -5.7782852371       -0.4205578445       -0.8774498547
 F         -7.0988971897       -0.5357476426       -0.8361937071
 C         -5.0469675469       -1.0027090110       -1.9080005125
 F         -5.6726879292       -1.6805912212       -2.8663365524
 C         -3.6621214608       -0.8660897683       -1.9435772083
 F         -3.0277988158       -1.4397082517       -2.9584906792
