  89
       -134.92516998
 C         -6.6835860607       -3.0991272210        1.7595221127
 C         -5.7077983764       -2.3048955203        2.3395596473
 C         -4.5070575351       -2.0900084770        1.6935691920
 C         -4.2671927395       -2.6658623343        0.4451041828
 N         -3.0590243712       -2.4260364874       -0.2161943464
 C         -2.4371863853       -3.4367991140       -0.9481858071
 C         -2.5156594669       -4.7653521069       -0.5254454498
 C         -1.8975521766       -5.7642686469       -1.2509527774
 C         -1.1868593710       -5.4605457361       -2.4010520512
 C         -1.1020204895       -4.1433877366       -2.8231915321
 C         -1.7224312928       -3.1375026765       -2.1095548187
 C         -2.4952696946       -1.1430428968       -0.1474325094
 C         -1.1250608379       -0.9800105605       -0.0453790980
 C         -0.5382346829        0.3047008059        0.0109815920
 C          0.8792800534        0.4781669498        0.0916499424
 C          1.5069033150        1.7077755371       -0.2630292885
 C          2.8529594236        1.8650057245       -0.2136730998
 C          3.7187734037        0.8011335767        0.1930408832
 C          5.0962852031        1.0443427812        0.2073404602
 N          5.6024885449        2.2931460373        0.1120652857
 C          6.9194892242        2.1904427322        0.3060177532
 C          7.9079390096        3.1870916928        0.3216717542
 C          9.2137626863        2.7948058599        0.5022909670
 C          9.5631124525        1.4495138408        0.6575716939
 C          8.6067187587        0.4416182111        0.6533425123
 C          7.2899192265        0.8208764430        0.4980068910
 N          6.1192053541        0.1051711564        0.4153186866
 C          6.0523593133       -1.2889267226        0.3205207163
 C          6.6606240805       -2.0829195642        1.2898493046
 C          6.6244289380       -3.4599888922        1.1748079198
 C          5.9837406055       -4.0560074669        0.1007707546
 C          5.3769266613       -3.2666499221       -0.8641179606
 C          5.4132308079       -1.8901743807       -0.7640843628
 C          3.0909598933       -0.4136732412        0.6016340552
 C          1.7414647537       -0.5607758872        0.5431309391
 C         -1.4144921069        1.4121696007        0.0034044505
 C         -2.7842151623        1.2491234019       -0.0985156247
 N         -3.6333123400        2.3644631271       -0.1131607932
 C         -3.2522403353        3.5284383789       -0.7824961810
 C         -2.4893078748        3.4584173354       -1.9495590347
 C         -2.1056246029        4.6139624086       -2.6003054182
 C         -2.4790607663        5.8545419637       -2.1084200823
 C         -3.2399460442        5.9301899283       -0.9529977503
 C         -3.6227881240        4.7809879037       -0.2899489595
 C         -4.8692242237        2.2878718486        0.5336086513
 C         -4.9883778074        1.5915143386        1.7376354486
 C         -6.2136287331        1.4912512332        2.3650798663
 C         -7.3354100171        2.0877585476        1.8125430380
 C         -7.2212535164        2.7889540737        0.6227423232
 C         -6.0017068431        2.8885529829       -0.0174177191
 C         -3.3396207983       -0.0305734928       -0.1930636945
 C         -5.2520320571       -3.4664871663       -0.1336724188
 C         -6.4475583032       -3.6801998624        0.5239116558
 H         -7.6211831434       -3.2658696252        2.2673974492
 H         -5.8795050861       -1.8582974412        3.3074934656
 H         -3.7395134065       -1.4844193039        2.1516429610
 H         -3.0556584134       -5.0036455711        0.3791724195
 H         -1.9640663481       -6.7870847157       -0.9104547630
 H         -0.7029273119       -6.2441314339       -2.9637064273
 H         -0.5549145435       -3.8976405196       -3.7212699432
 H         -1.6645670210       -2.1138339464       -2.4483723376
 H         -0.5002692138       -1.8585487606       -0.0353932541
 H          0.8995491302        2.5251625047       -0.6213477711
 H          3.3205078625        2.7924354199       -0.5030137753
 H          7.6315719452        4.2208021279        0.1931949199
 H          9.9964446132        3.5393496613        0.5200024595
 H         10.6028512834        1.1862521833        0.7826600871
 H          8.8914126115       -0.5945775103        0.7587977007
 H          7.1400604799       -1.6147652430        2.1367312117
 H          7.0936564383       -4.0711203157        1.9318419984
 H          5.9558736497       -5.1319017814        0.0162668594
 H          4.8788482717       -3.7272969320       -1.7043920990
 H          4.9477794563       -1.2689742888       -1.5148328476
 H          3.6911759788       -1.2116351749        1.0105126663
 H          1.3088008251       -1.4827302010        0.9020451948
 H         -1.0215244518        2.4091468714        0.1199880738
 H         -2.2061434797        2.4928785688       -2.3416517550
 H         -1.5166504764        4.5449858841       -3.5028243650
 H         -2.1784127826        6.7552705978       -2.6211539822
 H         -3.5295552652        6.8927677632       -0.5583571246
 H         -4.2015545666        4.8439334781        0.6198186823
 H         -4.1105518089        1.1420040045        2.1766095830
 H         -6.2921284675        0.9525437808        3.2974626206
 H         -8.2917286256        2.0088029623        2.3064095535
 H         -8.0914035556        3.2546340179        0.1842242708
 H         -5.9179311926        3.4227627170       -0.9525126593
 H         -4.4040883092       -0.1573951086       -0.3112908142
 H         -5.0749588112       -3.9082797933       -1.1033696517
 H         -7.2047288531       -4.2974980855        0.0635073340
