89
 energy: -134.927944792264 gnorm: 0.000047431370 xtb: 6.7.1 (edcfbbe)
C           -6.69272187539366       -3.12287202776326        1.73101350121197
C           -5.73254927377985       -2.31098421455828        2.31249400360108
C           -4.52792495310449       -2.08786815406961        1.67648936971489
C           -4.26866467233927       -2.67156763456558        0.43570452574508
N           -3.05685045702761       -2.42588889964521       -0.21667789078519
C           -2.42303801439389       -3.43807919249275       -0.93864945359521
C           -2.48523875809601       -4.76254270406433       -0.50191318198887
C           -1.85610796456729       -5.76165869951539       -1.21790109976746
C           -1.15061624329518       -5.46146068859968       -2.37198693092825
C           -1.08240019594853       -4.14802298656349       -2.80823732310440
C           -1.71408478293120       -3.14230649452211       -2.10411745007632
C           -2.49529404136912       -1.14264273295410       -0.14673054673642
C           -1.12489242176610       -0.97757922013966       -0.04440065522005
C           -0.54070986810841        0.30777193721145        0.01011443650535
C            0.87679244212166        0.48261941702090        0.09106686708992
C            1.50512617505306        1.71091292015356       -0.27232166935446
C            2.85011485991447        1.86866123384556       -0.22406097398719
C            3.71718305779421        0.80610214427941        0.19022452760701
C            5.09363196166365        1.04470885273277        0.19708983087242
N            5.60476353524553        2.29247054510609        0.08689975600861
C            6.92167041420349        2.18651172742373        0.27944573483803
C            7.91350070340518        3.17968896524839        0.28287679494188
C            9.21874739654796        2.78475229662699        0.46478878236924
C            9.56335486199354        1.44030991741243        0.63281335123556
C            8.60298309328341        0.43551568951269        0.64017931866621
C            7.28769350153933        0.81784331824480        0.48379840833650
N            6.11409020800634        0.10501994570553        0.41145679915344
C            6.04206233985840       -1.28965116678924        0.32516938932026
C            6.64804349233713       -2.08011003206453        1.29844581938085
C            6.60517205491444       -3.45780822532312        1.19189717764012
C            5.95974377688560       -4.05727367437301        0.12278980366942
C            5.35534064363712       -3.27120771583072       -0.84618542080594
C            5.39870830845146       -1.89427290533567       -0.75479395899570
C            3.08746318953012       -0.40597123370562        0.61126541571053
C            1.73924743780416       -0.55333596581140        0.55308257161127
C           -1.41613793122644        1.41466849825209        0.00091132967353
C           -2.78609776244946        1.25074789949967       -0.09962312253652
N           -3.63590409926844        2.36443528399438       -0.11518916550664
C           -3.24996408170121        3.53468909096868       -0.77220911943657
C           -2.48933545847852        3.47421398439720       -1.94105514652161
C           -2.10154795614551        4.63534873920155       -2.57943508972948
C           -2.46862479398265        5.87187733951851       -2.07283270833678
C           -3.22774893989374        5.93788702358471       -0.91572933138011
C           -3.61483048132834        4.78280721663996       -0.26525547806723
C           -4.87435756854794        2.28850953072357        0.52783767644274
C           -4.99908148632879        1.59484070176466        1.73241292733261
C           -6.22671787313434        1.49934536019254        2.35626639832492
C           -7.34501258000972        2.09788735604708        1.79909124351989
C           -7.22522226083047        2.79619213247855        0.60820531020824
C           -6.00325749297532        2.89111733663758       -0.02807177346358
C           -3.33921738140929       -0.03007000364896       -0.19328522095062
C           -5.23828406229739       -3.48942144405854       -0.14480893630691
C           -6.43716306950974       -3.71254859314445        0.50346218269641
H           -7.63296801932968       -3.29672866859273        2.23155809489268
H           -5.91919778477821       -1.85711873069451        3.27429119063901
H           -3.77260382636825       -1.46900187274580        2.13712038925894
H           -3.02218296968348       -4.99781114504926        0.40533042630055
H           -1.90959114180416       -6.78154961689870       -0.86653510823140
H           -0.65763773922045       -6.24500143614393       -2.92685126044333
H           -0.53934673749896       -3.90509863314225       -3.70957101008231
H           -1.66866696433362       -2.12140918494617       -2.45316894482175
H           -0.49820379254281       -1.85478998696960       -0.03504521929305
H            0.89698941140830        2.52490262900723       -0.63696525347029
H            3.31821275745162        2.79352442918707       -0.52060515628128
H            7.64075017637566        4.21306211535376        0.14432639012304
H           10.00388164682257        3.52681014719968        0.47333006951221
H           10.60227297740790        1.17417438018987        0.75869783905797
H            8.88434383424712       -0.60057260719452        0.75491572436112
H            7.13107542803954       -1.60901688257609        2.14163240528941
H            7.07293974380547       -4.06643448538013        1.95182315739028
H            5.92667407386188       -5.13350153955712        0.04502941119410
H            4.85354704335186       -3.73457565495296       -1.68271283445089
H            4.93501420146961       -1.27543579669491       -1.50857971935337
H            3.68797939051639       -1.19897758032523        1.02912981333792
H            1.30496632992196       -1.47105574518878        0.92077476584979
H           -1.02301353409013        2.41189385839037        0.11473630280434
H           -2.21088404814982        2.51173306149418       -2.34400401039898
H           -1.51394720415142        4.57411441322633       -3.48343311738635
H           -2.16423683832189        6.77704742699564       -2.57548065992758
H           -3.51285872900888        6.89723887560230       -0.50994820172324
H           -4.19322651806198        4.83770661079804        0.64530690589804
H           -4.12381368714673        1.14407040585703        2.17534755517551
H           -6.30953357715289        0.96335479612498        3.28987334740152
H           -8.30307877994510        2.02287928909955        2.29030312749300
H           -8.09275557766861        3.26315806402900        0.16581260908604
H           -5.91443642390627        3.42346475073720       -0.96376900994419
H           -4.40374615424153       -0.15764515575415       -0.31127801953561
H           -5.04653491473689       -3.93849370223987       -1.10835470747842
H           -7.18164862527047       -4.34430219654101        0.04187646415629
