  55
  -85.8753829122000       0.444151904346387      !
 O         -5.1033119185       -0.0349350006       -0.1014513106
 C         -3.8859370400       -0.0227628669       -0.0454844975
 C         -3.0989379642       -1.2682593535        0.0551087377
 C         -3.7902241986       -2.4809585832        0.1136743324
 C         -3.1115974019       -3.6756743123        0.2077662944
 C         -1.7239363921       -3.6719529483        0.2440045261
 C         -1.0320721734       -2.4782129899        0.1862640832
 C         -1.7054781376       -1.2649919634        0.0926378318
 C         -0.8889498639        0.0037020659        0.0240192519
 C         -1.7250525113        1.2598788534       -0.0347104274
 C         -1.0696953136        2.4863029883       -0.0625678091
 C         -1.7792094943        3.6694225090       -0.1222792957
 C         -3.1668173599        3.6487223606       -0.1575226759
 C         -3.8276079420        2.4406215334       -0.1324754369
 C         -3.1182657037        1.2385273765       -0.0708215086
 C         -0.0544599612       -0.0533190998       -1.2431729418
 C         -0.7131864481       -0.1042240870       -2.4618738956
 C         -0.0141473998       -0.1496767522       -3.6534349134
 C          1.3700163835       -0.1395244245       -3.6246581800
 C          2.0419057727       -0.0896085709       -2.4207097095
 C          1.3417934077       -0.0509876961       -1.2114884579
 N          2.0274187132       -0.0024360803       -0.0082051885
 C          3.4511999602       -0.0030629736       -0.0238501199
 C          4.1461042779        1.1977559094        0.0397773284
 C          5.5295563159        1.1932363945        0.0261256484
 C          6.2198851391       -0.0048181221       -0.0530794265
 C          5.5264164417       -1.2019305127       -0.1179280680
 C          4.1429552959       -1.2047446564       -0.1023925492
 C          1.3688043232        0.0628806635        1.2092137442
 C          2.0947755358        0.1107140525        2.4026999451
 C          1.4486926467        0.1798260081        3.6198647431
 C          0.0655208331        0.1992636799        3.6778106599
 C         -0.6589371276        0.1424941397        2.5019376318
 C         -0.0265109744        0.0731400198        1.2703026693
 H         -4.8691019460       -2.4481963519        0.0815445622
 H         -3.6535598207       -4.6084579894        0.2519750171
 H         -1.1823369015       -4.6036357451        0.3169200241
 H          0.0481387801       -2.4798469814        0.2149649126
 H          0.0105256479        2.5063722093       -0.0364125460
 H         -1.2516566123        4.6117850206       -0.1418843257
 H         -3.7226203790        4.5731934101       -0.2045151258
 H         -4.9061261026        2.3886609552       -0.1591297240
 H         -1.7939251593       -0.1069597111       -2.4691408388
 H         -0.5435469332       -0.1894654635       -4.5925038328
 H          1.9336918625       -0.1692922610       -4.5451752305
 H          3.1212125689       -0.0778038840       -2.4113826072
 H          3.5973762588        2.1259078520        0.1018843055
 H          6.0693349673        2.1270201262        0.0760186854
 H          7.2994158126       -0.0055636775       -0.0645064370
 H          6.0639265293       -2.1362861801       -0.1796505080
 H          3.5917231331       -2.1321682687       -0.1535932914
 H          3.1735629036        0.0916922080        2.3708748573
 H          2.0320662931        0.2177559512        4.5277269617
 H         -0.4434667476        0.2547399278        4.6273334747
 H         -1.7393257723        0.1510982648        2.5310933672
  55
  -85.8750062755000       0.298154443126146      !
 O         -5.0873609756       -0.2494051756       -0.0059653388
 C         -3.8731875898       -0.1397278446        0.0028933809
 C         -2.9853270614       -1.3175932868        0.0746608712
 C         -3.5756595608       -2.5822497248        0.1404746695
 C         -2.8021256334       -3.7194390968        0.2108174690
 C         -1.4187011128       -3.6044558351        0.2148105134
 C         -0.8263448422       -2.3587662157        0.1491880591
 C         -1.5960925636       -1.2022777418        0.0790811874
 C         -0.8864296366        0.1306065780        0.0053516285
 C         -1.8227063818        1.3126230687       -0.0499670732
 C         -1.2692207141        2.5875563030       -0.1029181511
 C         -2.0734009527        3.7089028154       -0.1584440995
 C         -3.4554552637        3.5760997383       -0.1633728670
 C         -4.0159165884        2.3190182429       -0.1116138644
 C         -3.2104104201        1.1788435043       -0.0540787354
 C         -0.0486825922        0.1273423482       -1.2611161614
 C         -0.7003571032        0.1577251398       -2.4842088842
 C          0.0037471533        0.1133846462       -3.6730880789
 C          1.3850095249        0.0272010244       -3.6371314842
 C          2.0501642948       -0.0053737498       -2.4286755790
 C          1.3456915730        0.0508994259       -1.2230320804
 N          2.0229407167        0.0254549251       -0.0141073238
 C          3.4339264466       -0.1652727571       -0.0118658185
 C          3.9502252403       -1.4420138577        0.1668843101
 C          5.3200484147       -1.6366969685        0.1701875562
 C          6.1745198861       -0.5611760035       -0.0055689154
 C          5.6592881522        0.7123093164       -0.1839436916
 C          4.2905156213        0.9142393542       -0.1865045426
 C          1.3658515737        0.1851776261        1.1954674471
 C          2.0933818202        0.2839143257        2.3846202730
 C          1.4497153600        0.4499460501        3.5936882425
 C          0.0681169301        0.5230161383        3.6461678482
 C         -0.6577182568        0.4268687759        2.4735018794
 C         -0.0277429645        0.2607581893        1.2499732532
 H         -4.6544032196       -2.6354702781        0.1341329724
 H         -3.2664403429       -4.6928373451        0.2614326682
 H         -0.8023741498       -4.4899775979        0.2685399168
 H          0.2508615265       -2.2769284992        0.1517708816
 H         -0.1935175241        2.6937207918       -0.1000696034
 H         -1.6243471612        4.6905118572       -0.1979282262
 H         -4.0851941136        4.4521469606       -0.2061373948
 H         -5.0868842811        2.1796887949       -0.1138571575
 H         -1.7796582158        0.2116486853       -2.4978325434
 H         -0.5204226631        0.1379164262       -4.6156788548
 H          1.9516957979       -0.0166423360       -4.5552145044
 H          3.1270641798       -0.0770493608       -2.4133441402
 H          3.2749587474       -2.2738590819        0.3040314093
 H          5.7202694234       -2.6298800475        0.3092431724
 H          7.2430713899       -0.7153091223       -0.0032746994
 H          6.3252735231        1.5513324412       -0.3196700499
 H          3.8775843606        1.9027414766       -0.3243414632
 H          3.1711552052        0.2314566352        2.3547280739
 H          2.0333274660        0.5231672618        4.4992076490
 H         -0.4391923505        0.6510138754        4.5896039854
 H         -1.7369209387        0.4772227226        2.5003910403
  55
  -85.8743745368000       0.152796807666139      !
 O         -5.0619243758       -0.1255855132        0.4656495970
 C         -3.8635987166       -0.0753333069        0.2486805749
 C         -3.0376944099       -1.2955122470        0.1488947068
 C         -3.6817049340       -2.5332761758        0.2170054583
 C         -2.9669666135       -3.7064069235        0.1175073033
 C         -1.5900384935       -3.6546834587       -0.0502165348
 C         -0.9440408787       -2.4356262991       -0.1129868400
 C         -1.6544597393       -1.2438283749       -0.0175987275
 C         -0.8886949220        0.0581908760       -0.0637196691
 C         -1.7763315300        1.2789718731       -0.1006879761
 C         -1.1805646755        2.5243672757       -0.2685165340
 C         -1.9401305547        3.6776070330       -0.2891372349
 C         -3.3181663456        3.6077036652       -0.1360973425
 C         -3.9196191696        2.3808700620        0.0380853660
 C         -3.1596759732        1.2088681548        0.0578213652
 C         -0.0228230531        0.0534159222       -1.3078590344
 C         -0.6538719398        0.0541708309       -2.5423467180
 C          0.0710546087        0.0167998159       -3.7185749975
 C          1.4532652277       -0.0342888709       -3.6572024746
 C          2.0980365629       -0.0366023658       -2.4373426877
 C          1.3721982278        0.0181591589       -1.2439745052
 N          2.0269883331        0.0213320303       -0.0220506362
 C          3.4468587627       -0.0684277423        0.0048744445
 C          4.2239042313        1.0521787198       -0.2597451426
 C          5.6037185712        0.9539727406       -0.2340799687
 C          6.2097035019       -0.2563426032        0.0593664438
 C          5.4347220863       -1.3724517871        0.3272044884
 C          4.0545228683       -1.2824659003        0.2984540292
 C          1.3378617706        0.1105306650        1.1777685713
 C          2.0362483625        0.1975026952        2.3856231143
 C          1.3636989128        0.2877212195        3.5867035863
 C         -0.0204216567        0.2987406565        3.6136575425
 C         -0.7179260870        0.2253627611        2.4227250184
 C         -0.0582438336        0.1349350462        1.2067604370
 H         -4.7536784057       -2.5370938115        0.3486179184
 H         -3.4725205534       -4.6590188441        0.1694853118
 H         -1.0203014065       -4.5687882540       -0.1313302804
 H          0.1282725114       -2.4022077391       -0.2420644936
 H         -0.1077255493        2.5829803058       -0.3856442919
 H         -1.4587840173        4.6351760827       -0.4236495485
 H         -3.9127479598        4.5088258633       -0.1516204992
 H         -4.9885701903        2.2909842276        0.1637432259
 H         -1.7339588317        0.0808744217       -2.5721845862
 H         -0.4365962230        0.0196159819       -4.6704361885
 H          2.0371055845       -0.0747586323       -4.5646783707
 H          3.1756760341       -0.0856508036       -2.4043669649
 H          3.7411055150        1.9913784722       -0.4860285607
 H          6.2069617941        1.8251851878       -0.4411842532
 H          7.2866190109       -0.3295478102        0.0793261541
 H          5.9058379954       -2.3160915392        0.5565820829
 H          3.4406543374       -2.1458053025        0.5096697281
 H          3.1155630263        0.1979169701        2.3775441271
 H          1.9267525998        0.3521401947        4.5057744173
 H         -0.5512573148        0.3674888627        4.5502042192
 H         -1.7985256527        0.2376939399        2.4303162287
  55
  -85.8740190904000       0.104896844861329      !
 O         -5.0718720161       -0.3081557107       -0.1243527564
 C         -3.8624820899       -0.1722224385       -0.0574179496
 C         -2.9529951508       -1.3311356228        0.0433876109
 C         -3.5191588847       -2.6073957699        0.0949109242
 C         -2.7252946011       -3.7284686149        0.1933032194
 C         -1.3455175307       -3.5848524780        0.2417927196
 C         -0.7769911223       -2.3275404595        0.1901611532
 C         -1.5672311472       -1.1871125235        0.0910543177
 C         -0.8839038347        0.1602891442        0.0241738254
 C         -1.8435327902        1.3234783520       -0.0270578457
 C         -1.3162449707        2.6104510742       -0.0448289556
 C         -2.1427596626        3.7155831975       -0.0974882274
 C         -3.5211862135        3.5540917916       -0.1357443941
 C         -4.0557478638        2.2848509632       -0.1219338707
 C         -3.2275553294        1.1609515363       -0.0679902862
 C         -0.0503760744        0.1778869459       -1.2449473307
 C         -0.7018517165        0.2386299484       -2.4670392915
 C          0.0032652831        0.2332694705       -3.6560217412
 C          1.3858564974        0.1699934900       -3.6214576831
 C          2.0502648334        0.1079643778       -2.4139652473
 C          1.3436092915        0.1021474857       -1.2081557959
 N          2.0241971223        0.0445577160       -0.0012675773
 C          3.4252295672       -0.2009498089       -0.0170560709
 C          3.8870886761       -1.4933344451       -0.2318958375
 C          5.2470084289       -1.7454874198       -0.2505474010
 C          6.1475825308       -0.7123937108       -0.0516853794
 C          5.6875014873        0.5765414887        0.1615358257
 C          4.3286539114        0.8365456416        0.1768049706
 C          1.3712430394        0.2038971141        1.2120327205
 C          2.0942993594        0.2587229068        2.4066681685
 C          1.4506496937        0.4307528529        3.6149779955
 C          0.0720041140        0.5464955003        3.6633992853
 C         -0.6517202239        0.4713148627        2.4881085060
 C         -0.0218389795        0.2993731722        1.2652429755
 H         -4.5957981566       -2.6825185948        0.0553987533
 H         -3.1709350808       -4.7111033685        0.2327704301
 H         -0.7130878548       -4.4571320344        0.3200540289
 H          0.2975319493       -2.2247792166        0.2299171237
 H         -0.2434270354        2.7388689293       -0.0160267770
 H         -1.7139447623        4.7068559322       -0.1092854589
 H         -4.1683180782        4.4173962219       -0.1769342676
 H         -5.1231943627        2.1231752891       -0.1526208866
 H         -1.7812981583        0.2874274007       -2.4804446009
 H         -0.5207665079        0.2784651243       -4.5978510535
 H          1.9539767368        0.1711531059       -4.5396657402
 H          3.1287776372        0.0661778504       -2.3987100494
 H          3.1766348489       -2.2918322057       -0.3886760047
 H          5.6035661423       -2.7508527869       -0.4176916009
 H          7.2085023190       -0.9115369956       -0.0642555683
 H          6.3890799979        1.3831747544        0.3134893020
 H          3.9599048742        1.8386294494        0.3396872359
 H          3.1686775315        0.1595546837        2.3854815272
 H          2.0325689190        0.4722161940        4.5235883989
 H         -0.4350490182        0.6820454288        4.6059210060
 H         -1.7299796916        0.5400690596        2.5122916156
