70
 energy: -108.265882783038 gnorm: 0.000045647525 xtb: 6.7.1 (edcfbbe)
C            9.56286532172547       -3.00937071184767        0.96461023802348
C            9.44644218705551       -2.13680720019275       -0.10489294857282
C            8.26983809876922       -1.43962863501584       -0.30873096872334
C            7.18634209462237       -1.60544321684945        0.55167235788662
C            5.93652214618811       -0.85949750990002        0.33238381615246
C            4.69893970270896       -1.50107220499475        0.47878043306762
C            3.50267011692626       -0.84377491699627        0.27456221699867
C            3.54781254597891        0.49516398517939       -0.08780352279749
C            4.78454851022929        1.16841502171938       -0.21253668399298
C            5.97473798738856        0.48622350295866       -0.01072013436402
C            4.47499264104390        2.53465848721583       -0.53489512149792
C            5.25398716807644        3.65472763462053       -0.79467038784450
C            4.62231856249217        4.84328145612221       -1.10398974616854
C            3.23275255678183        4.91883026950479       -1.17227526073495
C            2.43677982163013        3.81767186865988       -0.91819100083181
C            3.06492790202457        2.62696096102895       -0.58143333100387
N            2.51593104576481        1.38681215682410       -0.31223289481027
C            1.15055209399680        1.08874315044460       -0.25064458887408
C            0.63639650480121       -0.01021311884304       -0.93759865915514
C           -0.70744046998350       -0.30702913908898       -0.85914910198246
C           -1.57426797817169        0.48793922015293       -0.10817197694872
C           -2.99696804894005        0.13515483019178       -0.04507096467758
C           -3.99588587800238        1.06533550746288        0.24199984441831
C           -5.30994879317591        0.60049600592334        0.28683998375610
C           -6.44820444702663        1.47673943088324        0.59545187539009
C           -6.42639654159531        2.83842651291699        0.30043327591977
C           -7.51416797606879        3.63536782301524        0.60709614005711
C           -8.63230041355088        3.08736294516394        1.21474263986412
C           -8.66510210459637        1.73240112896247        1.50474346571579
C           -7.58318175011894        0.93127143181006        1.19388024049116
N           -5.58809263445679       -0.68376549243870        0.06795550540493
C           -4.57963139058720       -1.49979993966462       -0.22033123972136
C           -4.90018562243883       -2.90678556351138       -0.48238314525963
C           -3.87951949830971       -3.84328023932228       -0.63748543371826
C           -4.18397852185311       -5.16809112412305       -0.88608065359512
C           -5.50682326353498       -5.57221641090901       -0.98051872145000
C           -6.52667629565185       -4.64566188193160       -0.82709151156700
C           -6.22802412610104       -3.31935308193064       -0.57897074963022
N           -3.30299088438828       -1.13933354297626       -0.28815386968065
C           -1.05389314482695        1.58686442410786        0.57440189328911
C            0.29246790411355        1.88181746754622        0.50904903120346
C            7.31440174065298       -2.48777144285190        1.62247094353445
C            8.49325666877481       -3.18088097101435        1.82791724494794
H           10.48279154864340       -3.55283370132019        1.12481744447278
H           10.27533555341658       -2.00163771756377       -0.78523723419495
H            8.17957269478655       -0.77184570635879       -1.15369824112490
H            4.68324999027576       -2.54805879140020        0.74381839092216
H            2.56301909058347       -1.35885731806208        0.40489322609133
H            6.91924556904651        1.00310483901216       -0.09237302498886
H            6.33132334464933        3.59227585773839       -0.75841248225690
H            5.20988200266185        5.72671662735575       -1.30656014713772
H            2.76681348802695        5.85805050376073       -1.43298912236995
H            1.36180315317492        3.88285729881810       -0.99243751906477
H            1.29416478292361       -0.61698708468877       -1.54140194348174
H           -1.11490914539917       -1.15377895262747       -1.38926262814063
H           -3.76434105618066        2.10031068314007        0.42658652478762
H           -5.56946840166551        3.27343925368893       -0.19276681501682
H           -7.48970246601420        4.68887114136864        0.36915783448135
H           -9.47797995760092        3.71412057985900        1.45667725816691
H           -9.53681393070266        1.30034766715144        1.97398478272786
H           -7.59321396729006       -0.12543971956423        1.41359900871545
H           -2.85542225232652       -3.51352508887922       -0.55558392867293
H           -3.38873458653648       -5.88961061630265       -1.00504900583803
H           -5.74283478300028       -6.60838865226445       -1.17455321082804
H           -7.55758253750109       -4.95983170727557       -0.90203768301961
H           -7.01001321418973       -2.58502401892365       -0.46189879032743
H           -1.69496485469635        2.19799254173073        1.19165314277965
H            0.69263349200863        2.71659746254984        1.06470208141791
H            6.49036900480865       -2.61447189551108        2.30996720329849
H            8.57919503376171       -3.85724256156981        2.66665991473261
