70
 energy: -108.184218520560 gnorm: 0.000049501978 xtb: 6.7.1 (edcfbbe)
C            9.55662895366861       -2.98086001168022        1.19234302909777
C            9.42917570201233       -2.17668857966359        0.07094678933067
C            8.25789577132986       -1.47892227685330       -0.15505842264367
C            7.18695346505085       -1.57637778468687        0.73457250929108
C            5.94363391585145       -0.83728271880699        0.48547392815628
C            4.70006165772080       -1.43036537306779        0.75644826908695
C            3.50889763359053       -0.78008828181437        0.51390394043714
C            3.56022559285836        0.50424423939586       -0.01993024797320
C            4.80677242329778        1.13557040091023       -0.26260176134554
C            5.98927220665816        0.46300157382494       -0.01886364932306
C            4.50297753160193        2.45584056872304       -0.75039343514191
C            5.28351250131300        3.52457992928241       -1.16199835461078
C            4.65094626863263        4.67014594480664       -1.61503877154930
C            3.26192726296925        4.74594913584107       -1.67764797774166
C            2.46290046825077        3.69171536568411       -1.27233061090438
C            3.09080450177054        2.55199785023547       -0.78699705917423
N            2.53884512370946        1.36698941001052       -0.33915147490414
C            1.17161468624617        1.08714903683603       -0.24585732496906
C            0.65059610204263       -0.10439717490912       -0.76952978106201
C           -0.68786524302360       -0.37470861596796       -0.67547508603647
C           -1.58704743832768        0.53252234849856       -0.06575992145454
C           -2.97581953626925        0.20360144919297       -0.00344885750852
C           -3.98629540182113        1.08418978189851        0.42314469007509
C           -5.29610734048801        0.63935402956435        0.43202818349940
C           -6.42620769977255        1.45832972256459        0.82873231151694
C           -6.35186439542462        2.85317720334149        0.93890247298781
C           -7.45615424494928        3.58884247211174        1.31661159538868
C           -8.66219019639072        2.96148993491219        1.59440816361419
C           -8.75295735700319        1.58116066095472        1.48359273274795
C           -7.65494812585719        0.83963377118575        1.10462715068204
N           -5.56623130903293       -0.64662087316362        0.06094922300926
C           -4.59085935751555       -1.45115629081775       -0.32475928581759
C           -4.92252514641376       -2.82687588873963       -0.70163496371363
C           -3.91222115006095       -3.74301649218638       -0.98609764196585
C           -4.22861827051370       -5.04231187283284       -1.33354592071901
C           -5.55491188995833       -5.44105400845205       -1.40016119813995
C           -6.56546745933381       -4.53456063994865       -1.11908169147326
C           -6.25291988619331       -3.23418355507312       -0.77115220193456
N           -3.34267168526872       -1.05780918901139       -0.38384527259398
C           -1.04240766827755        1.72567551047778        0.45881613457864
C            0.30020981199642        1.99256840917956        0.37267816599538
C            7.32684984596963       -2.39187277218922        1.85808719786231
C            8.50199126772169       -3.08308178728780        2.08549085452489
H           10.47312487022331       -3.52434501357701        1.36964868658515
H           10.24572260519405       -2.09681623754370       -0.63227777595353
H            8.15933232989790       -0.87102709189171       -1.04264642996572
H            4.67645079066646       -2.43605326136271        1.14806509804486
H            2.56567076050173       -1.25300510062538        0.73959598641227
H            6.93773858808659        0.94806547579750       -0.19127417902517
H            6.36061796189396        3.46208743293650       -1.13281064531880
H            5.24125293566896        5.51518650106589       -1.93649179630422
H            2.79762717945878        5.64478294033731       -2.05531136687855
H            1.38789069201642        3.75030378138801       -1.34422563508689
H            1.31068794849100       -0.79249151943711       -1.27708923004746
H           -1.09453328821477       -1.28389784729488       -1.09061341034489
H           -3.74180288579979        2.08450671151138        0.73739691615212
H           -5.43170150128481        3.36893511757730        0.70838402352442
H           -7.37997938299752        4.66456794231635        1.39156852020556
H           -9.52275833556683        3.54340645037338        1.88939672209637
H           -9.68892199161436        1.08322690250830        1.69461816765712
H           -7.71755216574691       -0.23496069957250        1.02085862001977
H           -2.88451811104188       -3.41845147892137       -0.92452242076257
H           -3.44042971309650       -5.74817835289831       -1.55150538844180
H           -5.80068500671274       -6.45744739722681       -1.67092350320371
H           -7.59915138978603       -4.84384250685608       -1.17177806601355
H           -7.02772121693848       -2.51471299834198       -0.55270367058469
H           -1.68040434551641        2.43566027512179        0.96159626039897
H            0.70126219129012        2.89363045325987        0.81350890208419
H            6.51825315071423       -2.46230628401969        2.57078243890964
H            8.59734180457911       -3.70429672323815        2.96457005490225
