  79
       -122.12604776
 C         -6.0115152967        4.1136552474        0.6487040623
 C         -5.3739934712        2.7614248984        0.5226124367
 C         -5.6226182112        1.7915320014        1.4997555148
 C         -5.0596491972        0.5319829948        1.4469364319
 C         -4.2286568131        0.2404648044        0.3764636655
 C         -3.9526198200        1.2076065913       -0.6151264883
 C         -4.5317520022        2.4675103921       -0.5352641326
 C         -3.0330165654        0.5987545087       -1.5364204324
 C         -2.3840932597        1.0469210766       -2.6800971045
 C         -1.5236836499        0.1944927730       -3.3483330338
 C         -0.7832700017        0.6430490331       -4.5733977754
 C         -1.3343955179       -1.1093184029       -2.8757062137
 C         -1.9574930605       -1.5781906319       -1.7376493308
 C         -2.7975609226       -0.7079372160       -1.0589529435
 N         -3.5265385435       -0.9156678613        0.0965093373
 C         -3.3885012663       -2.0165411815        0.9526349358
 C         -4.5025071898       -2.7803632837        1.2813097733
 C         -4.3744752999       -3.8950736183        2.0890198192
 C         -3.1268721145       -4.2723214107        2.5650380618
 C         -2.0138589105       -3.5141085135        2.2622700266
 C         -2.1333268362       -2.3694378217        1.4751398385
 C         -0.9580891222       -1.5558627443        1.2487523223
 N          0.2838189787       -1.9122829061        1.4118721393
 N          1.0453175244       -0.8600742383        1.0947009869
 C          0.2464873208        0.1098322401        0.7512574368
 C          0.5592114010        1.4569470562        0.3354559269
 C         -0.4749084965        2.3929272139        0.2714988059
 C         -0.2136151345        3.7103594283       -0.0419223037
 C          1.0903328990        4.1156462875       -0.2881216278
 C          2.1202099265        3.1956568996       -0.2551363039
 C          1.8727376554        1.8560619963        0.0365822102
 N          2.9239173453        0.9430427774       -0.0010703259
 C          2.9782974235       -0.2029900361       -0.7712289646
 C          2.0621687090       -0.7010915234       -1.6848146948
 C          2.3917868556       -1.8582467216       -2.3603927656
 C          3.6059160596       -2.5217748983       -2.1582304423
 C          3.8909657640       -3.7815780927       -2.9220869953
 C          4.5268544975       -2.0033631468       -1.2659564972
 C          4.2210298798       -0.8402430278       -0.5724031794
 C          4.9460518612       -0.0387724942        0.3742449684
 C          6.1957107372       -0.1573255460        0.9672614942
 C          6.6117603017        0.8031556790        1.8726753797
 C          7.9546116362        0.7111466791        2.5356877280
 C          5.7649060215        1.8713393447        2.1848997740
 C          4.5165201307        2.0123433122        1.6116528217
 C          4.1139453046        1.0558636170        0.6923449674
 O         -1.0474649333       -0.2699328988        0.8468860706
 H         -7.0839436197        4.0177148774        0.8126512207
 H         -5.8475075527        4.7060896807       -0.2483188534
 H         -5.5920279279        4.6523902981        1.4991069457
 H         -6.2749079476        2.0420713606        2.3240364263
 H         -5.2549227716       -0.1979483199        2.2186959779
 H         -4.3206439133        3.2088469790       -1.2922191651
 H         -2.5478936149        2.0529697725       -3.0376933785
 H          0.2927738913        0.5698527451       -4.4150168910
 H         -1.0371516289        0.0121210314       -5.4246936847
 H         -1.0276848274        1.6731914780       -4.8200006032
 H         -0.6738346805       -1.7667785835       -3.4215231557
 H         -1.7856907411       -2.5845000180       -1.3830448415
 H         -5.4650901084       -2.4964022550        0.8823176976
 H         -5.2479526538       -4.4796211819        2.3359551780
 H         -3.0269463042       -5.1535960159        3.1796038191
 H         -1.0358152780       -3.7742932728        2.6347928120
 H         -1.4846951905        2.0757235961        0.4838244332
 H         -1.0233641239        4.4223056137       -0.0848296534
 H          1.3017289105        5.1481233120       -0.5230242270
 H          3.1320851533        3.4987598014       -0.4799320405
 H          1.1191413201       -0.2048424899       -1.8654456770
 H          1.6919448128       -2.2714025700       -3.0725892254
 H          3.8501938550       -3.5963058456       -3.9952262665
 H          3.1481271945       -4.5431697990       -2.6872226033
 H          4.8749301997       -4.1714128852       -2.6751274470
 H          5.4766314544       -2.4939037319       -1.1104962163
 H          6.8326330617       -0.9956898208        0.7262672321
 H          7.8403464382        0.6369549705        3.6166969085
 H          8.5469494917        1.6009187871        2.3246278075
 H          8.5016698860       -0.1603994350        2.1855665705
 H          6.1008014486        2.6059360232        2.9030507990
 H          3.8732916529        2.8370118737        1.8812425419
