  58
        -88.14377997
 C          6.4950713282        2.3485991464       -0.4816982805
 C          5.6810147783        1.1243902995       -0.2339266360
 N          6.3353484599       -0.0008248961       -0.0067004361
 C          5.6811856043       -1.1251621417        0.2252048477
 C          6.4954369830       -2.3499190799        0.4694072495
 C          4.2751529957       -1.1722802722        0.2382711640
 C          3.6278990056       -2.4104349680        0.4398789116
 N          3.1460022236       -3.4406953030        0.5927020959
 C          3.5451656906        0.0006841586        0.0018894210
 C          2.0788063848        0.0009588402        0.0038215294
 C          1.3750201619       -0.5939025135        1.0493175227
 C         -0.0044717669       -0.5869985596        1.0537523893
 C         -0.7056550517       -0.0003137559        0.0043856846
 N         -2.1199237180       -0.0008681041        0.0043481117
 C         -2.7958997678        1.1990064668        0.1898253825
 C         -2.0754605255        2.3728640578        0.4301779074
 C         -2.7196496841        3.5791263045        0.6065017733
 C         -4.1006325051        3.6364301664        0.5578787737
 C         -4.8164714193        2.4719594979        0.3542124943
 C         -4.1934940841        1.2439207288        0.1752182349
 C         -5.0421909138        0.0001087130       -0.0038410891
 C         -5.9187476337        0.1743009357       -1.2577718697
 C         -5.9248157059       -0.1737565813        1.2456909482
 C         -4.1932820446       -1.2441563623       -0.1787695995
 C         -4.8162848234       -2.4715724200       -0.3621931997
 C         -4.1002994947       -3.6366221484       -0.5620746901
 C         -2.7191109492       -3.5805776581       -0.6019084840
 C         -2.0748709966       -2.3748670755       -0.4213136293
 C         -2.7955906789       -1.2003786288       -0.1852103409
 C         -0.0054699703        0.5876127235       -1.0450044756
 C          1.3739667277        0.5958579329       -1.0410338907
 C          4.2750751110        1.1729455730       -0.2382826558
 C          3.6281307693        2.4115522051       -0.4370907473
 N          3.1446971319        3.4434251169       -0.5819828357
 H          6.2853353108        3.1011881870        0.2775665948
 H          6.2453812784        2.7821511870       -1.4492423764
 H          7.5501828129        2.0929319163       -0.4572816669
 H          7.5507977226       -2.0971359953        0.4247365833
 H          6.2616522379       -2.7730813437        1.4458782636
 H          6.2697465722       -3.1092246619       -0.2789464655
 H          1.9102019477       -1.0365808324        1.8763320839
 H         -0.5491444957       -1.0380043786        1.8693370397
 H         -0.9982979696        2.3408036695        0.4857367126
 H         -2.1385734193        4.4712526156        0.7850952580
 H         -4.6170381938        4.5750025286        0.6892924368
 H         -5.8945133604        2.5264109026        0.3378477891
 H         -6.5552949727       -0.6926337282       -1.4103802498
 H         -5.2876249709        0.2952689814       -2.1362869629
 H         -6.5540640904        1.0511842715       -1.1687657167
 H         -5.2979141707       -0.2959527341        2.1271675522
 H         -6.5607432925       -1.0498580394        1.1529027368
 H         -6.5610618138        0.6940341212        1.3957219770
 H         -5.8943721182       -2.5251868478       -0.3520687201
 H         -4.6167201105       -4.5747715743       -0.6966309206
 H         -2.1378229306       -4.4732297708       -0.7770983477
 H         -0.9974339389       -2.3438385621       -0.4700800140
 H         -0.5508049709        1.0369952742       -1.8610392153
 H          1.9086226503        1.0353074846       -1.8702330782
