  58
        -88.05806435
 C          6.5017355873        2.2875665655       -0.7533765242
 C          5.6715168237        1.1022414476       -0.3747337891
 N          6.3282766968        0.0100226528       -0.0008393959
 C          5.6832160041       -1.0886855159        0.3741658268
 C          6.5265426070       -2.2637191147        0.7560909359
 C          4.2926524410       -1.1491016412        0.3979783516
 C          3.7285953286       -2.3956010080        0.6966797941
 N          3.3366645416       -3.4568374603        0.9185894609
 C          3.5089987972       -0.0060814483       -0.0025031526
 C          2.0924319060       -0.0130640980       -0.0077499776
 C          1.3415957439       -0.8198764684        0.8957015891
 C         -0.0224536589       -0.8225123643        0.8907785994
 C         -0.7388175424       -0.0119339855       -0.0091502483
 N         -2.1481944079       -0.0051154620       -0.0048300947
 C         -2.8155631594        1.1693622411        0.2866448936
 C         -2.0845541363        2.3127377446        0.6493933573
 C         -2.7186129894        3.5057948609        0.9070438169
 C         -4.1011398937        3.5841016720        0.8306190246
 C         -4.8304598778        2.4480281866        0.5316000128
 C         -4.2188406103        1.2305373472        0.2665047892
 C         -5.0722874880        0.0091961568        0.0088494179
 C         -5.9591326080        0.2681435399       -1.2245965771
 C         -5.9483710144       -0.2412579883        1.2516525855
 C         -4.2333005352       -1.2201019600       -0.2580896090
 C         -4.8589802872       -2.4314153347       -0.5186333309
 C         -4.1434015068       -3.5738283099       -0.8263876253
 C         -2.7609612239       -3.5085512424       -0.9161652420
 C         -2.1130601212       -2.3220981770       -0.6625361590
 C         -2.8297779029       -1.1723969098       -0.2913932003
 C         -0.0210023218        0.7939111881       -0.9121967038
 C          1.3428716335        0.7891682731       -0.9165099325
 C          4.2805614581        1.1468901145       -0.3984357948
 C          3.7013575667        2.3885379683       -0.6885818111
 N          3.2968259923        3.4469263995       -0.9012454911
 H          6.2748762667        3.1331724474       -0.1051536405
 H          6.2884313839        2.5912833017       -1.7774636181
 H          7.5545421048        2.0350790433       -0.6629468568
 H          6.3106968668       -3.1130066935        0.1088982349
 H          7.5764798371       -1.9990627399        0.6669002405
 H          6.3151880276       -2.5682913928        1.7803436385
 H          1.8616947672       -1.3989062045        1.6412048853
 H         -0.5698257801       -1.4113097064        1.6130174258
 H         -1.0120895520        2.2531788769        0.7368499876
 H         -2.1353621433        4.3729072735        1.1747459472
 H         -4.6082436542        4.5165609943        1.0240083793
 H         -5.9070896308        2.5171323452        0.5103036293
 H         -6.6022819684       -0.5837075293       -1.4247476461
 H         -5.3356095957        0.4411958093       -2.0994592952
 H         -6.5874482007        1.1406911591       -1.0724717216
 H         -6.5820722223        0.6163802789        1.4575481388
 H         -5.3173214512       -0.4189341897        2.1202399632
 H         -6.5857748252       -1.1086339234        1.1067585484
 H         -5.9359012074       -2.4904207110       -0.4866329549
 H         -4.6611323372       -4.5011562659       -1.0162326932
 H         -2.1889021103       -4.3808468887       -1.1911915541
 H         -1.0409168510       -2.2719232206       -0.7599281818
 H         -0.5675409333        1.3818597864       -1.6357838396
 H          1.8641750678        1.3640565879       -1.6644538634
