58
 energy: -88.141165129191 gnorm: 0.000089109218 xtb: 6.7.1 (edcfbbe)
C            6.85499828599147        2.39932115771142       -0.00031688289367
C            6.04278334081420        1.14961090414627       -0.00015946004432
N            6.69465615190447       -0.00003075409750       -0.00018263597162
C            6.04277806157404       -1.14967238975197       -0.00003670039420
C            6.85498933219272       -2.39938490584814       -0.00007656998619
C            4.63660137508310       -1.19659445741578        0.00012943126601
C            3.95076505192457       -2.43034016152876        0.00027958983932
N            3.39986048035185       -3.43565706231625        0.00047601492115
C            3.91520667236552       -0.00002798362259        0.00012990032763
C            2.43801196086229       -0.00002315746411        0.00015746269762
C            1.74250253542320        0.00018333234358        1.20288759286244
C            0.36115016371300        0.00018411944513        1.20293930422125
C           -0.33374614324680       -0.00000673621574        0.00006941254050
N           -1.75398035391249        0.00000580019881        0.00002660679754
C           -2.42424531292863        1.21295779283565        0.00011527971423
C           -1.69439518593671        2.40500084347017        0.00022343009659
C           -2.33429521632834        3.62652358783398        0.00027818172646
C           -3.71634042076684        3.67972137749850        0.00020174472873
C           -4.43925211169000        2.50104118144534        0.00009287575712
C           -3.82197816107654        1.25778510371867        0.00006373805785
C           -4.67071531080021        0.00003264908171       -0.00007073269996
C           -5.55098382340715        0.00010198294735       -1.26317899785147
C           -5.55121520200436       -0.00002069883990        1.26287446122655
C           -3.82200130202310       -1.25773539892905       -0.00005058836046
C           -4.43929790856490       -2.50098024610818       -0.00007772119371
C           -3.71640778055607       -3.67967372674093       -0.00007413265288
C           -2.33436161221691       -3.62650125483688       -0.00005617394062
C           -1.69443929214101       -2.40499011314822       -0.00003312882167
C           -2.42426759289587       -1.21293362391257       -0.00002239749767
C            0.36121945819039       -0.00020879871137       -1.20275994383915
C            1.74256988001953       -0.00022564534960       -1.20261495476450
C            4.63660405702419        1.19654217136152       -0.00000198064391
C            3.95078938775563        2.43028000799610       -0.00005016926347
N            3.39992374469994        3.43558169919065       -0.00001392909762
H            6.62393691898242        3.00056138014996        0.87835210162900
H            6.62295784577395        3.00100135592599       -0.87842356934863
H            7.91101596057219        2.14612786861941       -0.00093505859084
H            7.91100916421575       -2.14619645372203       -0.00025118675264
H            6.62356915833131       -3.00078339999556        0.87839005731460
H            6.62330763975726       -3.00090966864415       -0.87838592658336
H            2.28502029831310        0.00031782167899        2.13727722140524
H           -0.18660321384341        0.00032509897124        2.13306206248183
H           -0.61536708421503        2.37196988459360        0.00026300866011
H           -1.74950981119704        4.53403720054707        0.00037874353268
H           -4.22916787521114        4.62948608148856        0.00023371512003
H           -5.51740295224286        2.55818811056523        0.00003324209852
H           -6.18686056741783       -0.88037117174965       -1.29343257345754
H           -4.92234500794103        0.00023234111519       -2.15177531646696
H           -6.18697385022324        0.88049927176870       -1.29325525626193
H           -4.92274602422093       -0.00016010440918        2.15159123907574
H           -6.18722902693050       -0.88040393224106        1.29283313255967
H           -6.18708639058637        0.88045962380686        1.29300787311006
H           -5.51744977066697       -2.55810751235951       -0.00010120908838
H           -4.22925256951005       -4.62942907102837       -0.00007873478897
H           -1.74959290221792       -4.53402573784360       -0.00004990206737
H           -0.61541049417347       -2.37197854013286       -0.00001298930063
H           -0.18646636370208       -0.00034103857984       -2.13292195019554
H            2.28515470896296       -0.00036600488436       -2.13696565093110
