  75
  -109.541394216100       0.465852240778488      !
 C         -2.5924252504        6.2339366403        0.5478667586
 C         -1.5355053137        5.5772883139       -0.3439252315
 C         -0.1672392167        6.1737114109        0.0156003652
 C         -1.8757822724        5.8975465836       -1.8063220339
 C         -1.4770260664        4.0687143744       -0.1693552475
 C         -0.5543125646        3.3299548460       -0.9076701245
 C         -0.4606026979        1.9593257891       -0.7861001126
 C         -1.2950519478        1.2841987831        0.0971918982
 N         -1.1958843044       -0.1109210076        0.2297818894
 C         -0.0550542921       -0.8399546751        0.4558020053
 C          1.2435528495       -0.2294058121        0.6970802599
 C          1.3179295383        0.9105643351        1.4983962321
 C          2.5176666051        1.5436625899        1.7348851078
 C          3.7026166225        1.0600983153        1.1771790559
 C          4.9560300514        1.7014934635        1.3936268898
 C          6.0969523650        1.2124154166        0.8553216844
 C          6.0864773482        0.0346169634        0.0521705162
 C          7.2518634094       -0.4874979274       -0.5114615294
 C          7.2107902200       -1.6326381044       -1.2854216382
 C          6.0121885890       -2.2820579467       -1.5159120798
 C          4.8216219439       -1.7948425120       -0.9737515670
 C          3.5672422561       -2.4343297847       -1.1920167081
 C          2.4223091428       -1.9449211275       -0.6614798749
 C          2.4220414947       -0.7697177815        0.1454925819
 C          3.6556573617       -0.1112533566        0.3813571625
 C          4.8523614971       -0.6230379252       -0.1789209001
 N         -0.3204323793       -2.1223127896        0.4805378819
 C         -1.6582552506       -2.2625622262        0.2692174030
 C         -2.2569474621       -3.5863815910        0.1975408550
 C         -1.6189858004       -4.6487268487        0.8373237226
 C         -2.1549078073       -5.9204930312        0.7869985886
 C         -3.3319784024       -6.1531272935        0.0940185720
 C         -3.9615457179       -5.1067138152       -0.5600779310
 C         -3.4291663190       -3.8320615688       -0.5151820059
 C         -2.2316084814       -1.0101176280        0.1159524506
 C         -3.6092288971       -0.5967037573       -0.1148204149
 C         -4.6319319884       -1.1033108006        0.6862424072
 C         -5.9391844878       -0.7061013045        0.4826071719
 C         -6.2444847762        0.2026342647       -0.5181806667
 C         -5.2349261745        0.7069912930       -1.3204445252
 C         -3.9249645975        0.3120857765       -1.1231916112
 C         -2.2212630377        2.0016048754        0.8406762376
 C         -2.3077220029        3.3750794893        0.7022435530
 H         -3.5874872411        5.8627777206        0.3142703561
 H         -2.3820772853        6.0561496050        1.5998629000
 H         -2.5880712434        7.3090976384        0.3819539476
 H          0.0921522170        5.9259590924        1.0428563771
 H          0.6152829463        5.7928875107       -0.6343900217
 H         -0.1945175340        7.2566076570       -0.0821291206
 H         -2.8363270401        5.4612021722       -2.0724167289
 H         -1.9343065847        6.9743438035       -1.9496723177
 H         -1.1230479461        5.5044773649       -2.4836668598
 H          0.1080876719        3.8266533268       -1.5993407232
 H          0.2589722351        1.4055853132       -1.3709840861
 H          0.4199150762        1.2953071277        1.9590507992
 H          2.5478913802        2.4230834493        2.3622225579
 H          4.9701473440        2.5940986486        2.0033703030
 H          7.0439312752        1.7053937652        1.0244244966
 H          8.1923682962        0.0149563247       -0.3356030001
 H          8.1230550245       -2.0229708792       -1.7129503242
 H          5.9871346674       -3.1771975648       -2.1207507672
 H          3.5511980785       -3.3290553662       -1.7982197429
 H          1.4820900081       -2.4487646662       -0.8188479422
 H         -0.7006628397       -4.4523617442        1.3686892660
 H         -1.6546615842       -6.7353691166        1.2901134841
 H         -3.7537011743       -7.1469460481        0.0570682709
 H         -4.8716405554       -5.2861864358       -1.1144552537
 H         -3.9160583682       -3.0273784969       -1.0448959385
 H         -4.3893246841       -1.8090873954        1.4671647960
 H         -6.7235745583       -1.1032998794        1.1099604211
 H         -7.2666377483        0.5139794955       -0.6738440623
 H         -5.4682667482        1.4098051596       -2.1069916305
 H         -3.1437301549        0.6985601849       -1.7619304835
 H         -2.8710188159        1.4846893248        1.5311385792
 H         -3.0397794660        3.8961062843        1.2962131242
  75
  -109.541306794200       0.424689834091835      !
 C         -0.8923561004        6.1580311734        1.6101451087
 C         -1.7739714786        5.5826948390        0.4987333050
 C         -1.4341183690        6.3119536248       -0.8086178795
 C         -3.2418069520        5.8358826559        0.8709260834
 C         -1.5685596373        4.0897287648        0.3020605421
 C         -2.3014860734        3.4212889296       -0.6763516903
 C         -2.1625129281        2.0647188349       -0.8859251653
 C         -1.2762580584        1.3316803921       -0.1057317214
 N         -1.1500667983       -0.0565230207       -0.2844183247
 C          0.0054244726       -0.7815327874       -0.4429243645
 C          1.3190117906       -0.1769665674       -0.5953666940
 C          1.4419201176        1.0076575146       -1.3233016245
 C          2.6608571110        1.6265425226       -1.4874205606
 C          3.8200517268        1.0811754113       -0.9326989138
 C          5.0931506579        1.7024241665       -1.0824483058
 C          6.2101200930        1.1501047494       -0.5552020846
 C          6.1531909563       -0.0764459358        0.1690082249
 C          7.2941187737       -0.6667085177        0.7151566493
 C          7.2091370087       -1.8588244446        1.4107565554
 C          5.9895527310       -2.4875030923        1.5798808956
 C          4.8221381085       -1.9322305870        1.0527936382
 C          3.5473047609       -2.5479756022        1.2100128569
 C          2.4260567340       -1.9959460117        0.6902219052
 C          2.4711942718       -0.7756338861       -0.0451951210
 C          3.7256847071       -0.1353440494       -0.2124032405
 C          4.8978249919       -0.7130799386        0.3361737200
 N         -0.2577579400       -2.0641178492       -0.5044000429
 C         -1.6053567484       -2.2083877798       -0.3840455208
 C         -2.2074411495       -3.5323716799       -0.3592935428
 C         -1.5287567241       -4.5937192980       -0.9571088813
 C         -2.0667579133       -5.8656365576       -0.9430401442
 C         -3.2866746775       -6.0990623386       -0.3290126879
 C         -3.9581473675       -5.0534141637        0.2832425420
 C         -3.4239634863       -3.7789311740        0.2746888962
 C         -2.1893105207       -0.9585126838       -0.2536455579
 C         -3.5833550382       -0.5567246504       -0.1194942511
 C         -3.9865734917        0.3213321839        0.8847772725
 C         -5.3123420529        0.6984199503        0.9892582144
 C         -6.2508674427        0.2062989370        0.0978600224
 C         -5.8585167967       -0.6713672328       -0.9001360135
 C         -4.5348223528       -1.0501897687       -1.0115345184
 C         -0.5324941439        1.9802319762        0.8702048235
 C         -0.6781155318        3.3416863674        1.0633651034
 H         -1.1155784837        5.6933795874        2.5675945466
 H          0.1623372433        6.0215293972        1.3836313480
 H         -1.0801090780        7.2254902506        1.7039592141
 H         -0.4020159057        6.1154245858       -1.0910632068
 H         -2.0780436478        5.9903922847       -1.6221625402
 H         -1.5584208277        7.3848326305       -0.6803828590
 H         -3.4937954486        5.3060491214        1.7871399303
 H         -3.4090118459        6.8988003754        1.0298230964
 H         -3.9139512447        5.4987664752        0.0870615916
 H         -2.9999103964        3.9631825255       -1.2948417975
 H         -2.7387934108        1.5692793433       -1.6530313169
 H          0.5675339325        1.4402162216       -1.7867009101
 H          2.7269646632        2.5416333797       -2.0585113493
 H          5.1425140433        2.6310228619       -1.6338622448
 H          7.1724871448        1.6278447701       -0.6736475228
 H          8.2508904316       -0.1809706836        0.5863131678
 H          8.1033430768       -2.3026825104        1.8238100601
 H          5.9296008650       -3.4195352981        2.1234251531
 H          3.4954763264       -3.4769132168        1.7601284690
 H          1.4706824391       -2.4830448027        0.8003278745
 H         -0.5772810227       -4.3971263105       -1.4265005836
 H         -1.5336550974       -6.6803810415       -1.4114953153
 H         -3.7093166567       -7.0930776397       -0.3197732337
 H         -4.9026226334       -5.2332523025        0.7766975122
 H         -3.9444400045       -2.9749429317        0.7726697969
 H         -3.2617635994        0.6977453103        1.5921297780
 H         -5.6143413348        1.3775948517        1.7730861762
 H         -7.2857091068        0.5025643583        0.1827106280
 H         -6.5871289232       -1.0598074656       -1.5964237191
 H         -4.2244316291       -1.7330311846       -1.7888339386
 H          0.1582443840        1.4149645752        1.4785220028
 H         -0.0842939399        3.8083786758        1.8312928950
  75
  -109.539079622200       4.022855950627595E-002 !
 C          1.9372660255        4.6593104323       -0.8406522015
 C          0.4051062624        4.6277036543       -0.9348400884
 C          0.0044079145        5.0742026129       -2.3430357080
 C         -0.2016167222        5.6135535087        0.0731279776
 C         -0.0722507732        3.2228938879       -0.6092606023
 C         -0.8056394734        2.4463894991       -1.4978171226
 C         -1.1676664542        1.1479332887       -1.1910142485
 C         -0.8077651501        0.5948414518        0.0297274119
 N         -1.0688482488       -0.7569556627        0.3119399618
 C         -0.1457594608       -1.6781625706        0.7438378771
 C          1.2350180278       -1.3305385706        1.0533894932
 C          1.7445186111       -1.6952576293        2.2977749828
 C          2.9727867459       -1.2370937137        2.7241684343
 C          3.7206009430       -0.3611671357        1.9328873129
 C          4.9428678828        0.2160037315        2.3840454189
 C          5.6393351525        1.0807720745        1.6101186116
 C          5.1867507641        1.4334712699        0.3045325519
 C          5.8830088825        2.3310220483       -0.5070781485
 C          5.4234661334        2.6407303514       -1.7738341329
 C          4.2687890614        2.0590346837       -2.2649235423
 C          3.5366341046        1.1612723507       -1.4862948089
 C          2.3636410591        0.5127553762       -1.9693261265
 C          1.6450175904       -0.3182777670       -1.1802909936
 C          2.0214891839       -0.5666951899        0.1722703504
 C          3.2464875009       -0.0319766116        0.6389091694
 C          3.9900487645        0.8510417850       -0.1810674934
 N         -0.6909527402       -2.8569885077        0.8951309081
 C         -2.0033454390       -2.7361591218        0.5474613799
 C         -2.9009285738       -3.8776889285        0.6403786865
 C         -4.2630677325       -3.7263633538        0.8928964408
 C         -5.0828082967       -4.8360166212        0.9739009217
 C         -4.5582515318       -6.1082072504        0.8136028388
 C         -3.2013037916       -6.2673724138        0.5843480143
 C         -2.3772217473       -5.1621287921        0.5007495400
 C         -2.2619093047       -1.4272262366        0.1696091281
 C         -3.4807180014       -0.7798991309       -0.2926790958
 C         -3.8746338628        0.4551862713        0.2197795426
 C         -5.0311675491        1.0614160666       -0.2337236714
 C         -5.8093290901        0.4466543971       -1.2002629793
 C         -5.4262126859       -0.7830481924       -1.7121599973
 C         -4.2700748385       -1.3928083903       -1.2656271542
 C         -0.1257853507        1.3767360164        0.9542960897
 C          0.2393805271        2.6658995402        0.6286942516
 H          2.2800607338        4.4118249219        0.1596617981
 H          2.3720099353        3.9403573548       -1.5308880013
 H          2.3070539743        5.6508301970       -1.0924708344
 H          0.4277123670        4.4135218135       -3.0955912721
 H         -1.0770219967        5.0979224630       -2.4543534235
 H          0.3824145108        6.0778506762       -2.5255840993
 H          0.1043045502        5.3789379783        1.0885501174
 H          0.1209956140        6.6270937665       -0.1543359753
 H         -1.2880768132        5.5783234672        0.0264374083
 H         -1.0939201924        2.8360839115       -2.4596223075
 H         -1.7130252703        0.5545308767       -1.9097118240
 H          1.1408883165       -2.3246242069        2.9342089816
 H          3.3487951226       -1.5227461700        3.6959869767
 H          5.2966329346       -0.0504276407        3.3700712244
 H          6.5604252752        1.5209360902        1.9652567423
 H          6.7909306150        2.7831966805       -0.1344835573
 H          5.9749120846        3.3375959665       -2.3881962019
 H          3.9251417741        2.2934504162       -3.2628242101
 H          2.0651613718        0.6934371230       -2.9924053140
 H          0.7840322710       -0.8339931670       -1.5774370656
 H         -4.6764761174       -2.7397369917        1.0392645747
 H         -6.1376140353       -4.7079423403        1.1722242003
 H         -5.2035723243       -6.9721216911        0.8776505226
 H         -2.7857042543       -7.2582138977        0.4711924740
 H         -1.3175570232       -5.2702625589        0.3296596596
 H         -3.2798628742        0.9338340502        0.9842609861
 H         -5.3273496447        2.0178117395        0.1720308441
 H         -6.7110335723        0.9237906751       -1.5541254651
 H         -6.0285735733       -1.2657247069       -2.4677406926
 H         -3.9658478197       -2.3484415249       -1.6663673583
 H          0.1334067950        0.9650428376        1.9182457598
 H          0.7885970157        3.2399913605        1.3583524176
  75
  -109.539000245900       3.698755806798904E-002 !
 C          1.1968440653        5.3240425881        0.0567801117
 C          0.3442832930        4.6279889542       -1.0066813087
 C          1.1838815876        4.5181315425       -2.2870769598
 C         -0.9019324904        5.4850311578       -1.2671925058
 C         -0.0856455106        3.2322459536       -0.5890617838
 C         -0.8437778192        2.4589301958       -1.4652522071
 C         -1.1991116281        1.1611989441       -1.1641505598
 C         -0.8079657998        0.5998918774        0.0457642459
 N         -1.0620896659       -0.7552087913        0.3181005741
 C         -0.1320200609       -1.6871132217        0.7103018076
 C          1.2524564084       -1.3541472787        1.0191152031
 C          1.7678378642       -1.7723431686        2.2443947299
 C          3.0031966548       -1.3432060236        2.6797042390
 C          3.7528639375       -0.4421943549        1.9190994160
 C          4.9841025796        0.1041967259        2.3837868986
 C          5.6814015449        0.9959141624        1.6420165189
 C          5.2201589580        1.4089662909        0.3573558352
 C          5.9157405429        2.3373564464       -0.4195192165
 C          5.4485860465        2.7047208937       -1.6680621679
 C          4.2873623155        2.1509144958       -2.1758594932
 C          3.5545429819        1.2256330736       -1.4307708081
 C          2.3747888679        0.6043135618       -1.9332049351
 C          1.6569227932       -0.2557211354       -1.1752122849
 C          2.0390579691       -0.5616092970        0.1640066126
 C          3.2712578218       -0.0553803613        0.6439920568
 C          4.0154018590        0.8564707723       -0.1434338806
 N         -0.6754968244       -2.8697724896        0.8393198431
 C         -1.9931646132       -2.7402073394        0.5172190824
 C         -2.8904763472       -3.8834081295        0.5917439156
 C         -4.2439686651       -3.7390648106        0.8901929732
 C         -5.0648320101       -4.8491718473        0.9511630153
 C         -4.5496959613       -6.1148471942        0.7240744912
 C         -3.2008104746       -6.2677357981        0.4476272949
 C         -2.3753970489       -5.1619966212        0.3851728267
 C         -2.2578171764       -1.4218592940        0.1795827377
 C         -3.4861979124       -0.7625424807       -0.2379576123
 C         -3.8672870175        0.4582002106        0.3165865113
 C         -5.0336435020        1.0763656901       -0.0931883807
 C         -5.8342640171        0.4879663779       -1.0575760976
 C         -5.4638463558       -0.7272255085       -1.6113112109
 C         -4.2982467224       -1.3489665359       -1.2082997751
 C         -0.1060375007        1.3755117203        0.9571614528
 C          0.2553859896        2.6703751466        0.6346550866
 H          0.6412401528        5.4550138298        0.9822017890
 H          2.1029399551        4.7575388468        0.2585593321
 H          1.4881095270        6.3091564794       -0.3013977990
 H          2.0546264330        3.8926566224       -2.1045667990
 H          0.6110656273        4.0827608286       -3.1006983937
 H          1.5225141881        5.5040569702       -2.5979263591
 H         -1.5076570992        5.5511170697       -0.3658947565
 H         -0.6097903114        6.4907206752       -1.5611378019
 H         -1.5144694682        5.0629815541       -2.0587889523
 H         -1.1514763946        2.8637111179       -2.4167515662
 H         -1.7612239032        0.5720158951       -1.8732359847
 H          1.1634702573       -2.4226585254        2.8585710760
 H          3.3840723131       -1.6722554287        3.6357241307
 H          5.3441237528       -0.2082422122        3.3538800443
 H          6.6096039520        1.4122261116        2.0071989332
 H          6.8292265206        2.7674327659       -0.0344764885
 H          5.9997362773        3.4244500370       -2.2558240005
 H          3.9403667139        2.4278184926       -3.1614892497
 H          2.0709814105        0.8302286082       -2.9454826933
 H          0.7911657744       -0.7502761114       -1.5883469684
 H         -4.6494639316       -2.7578201260        1.0853873355
 H         -6.1132345796       -4.7266593906        1.1828593468
 H         -5.1962749250       -6.9788743946        0.7701552063
 H         -2.7926539061       -7.2539375752        0.2807499921
 H         -1.3217345882       -5.2654981044        0.1775874237
 H         -3.2540290686        0.9163736912        1.0789531291
 H         -5.3205737920        2.0205473345        0.3460394024
 H         -6.7452311524        0.9728749270       -1.3750420506
 H         -6.0852540391       -1.1904973522       -2.3634983706
 H         -4.0048999794       -2.2942405446       -1.6402792096
 H          0.1764188948        0.9576034446        1.9119416770
 H          0.8207841051        3.2315843889        1.3592512820
  75
  -109.538870480000       3.224180755541218E-002 !
 C          0.1062155918        5.0204969321       -2.3786021931
 C          0.4626124431        4.5964087874       -0.9518075638
 C         -0.1580395803        5.6083990288        0.0210757050
 C          1.9921446686        4.6104399612       -0.8172172181
 C         -0.0410837958        3.2040756617       -0.6128856813
 C         -0.7659859056        2.4215616004       -1.5030402986
 C         -1.1465054308        1.1311809657       -1.1839033226
 C         -0.8125795061        0.5928555963        0.0504810013
 N         -1.0766009298       -0.7555834180        0.3453223829
 C         -0.1528091725       -1.6660806744        0.7978738203
 C          1.2237173303       -1.2958694030        1.1030093144
 C          1.7323507887       -1.5961888466        2.3642771907
 C          2.9521696447       -1.1004501413        2.7735954745
 C          3.6918116110       -0.2525705283        1.9450397475
 C          4.9040455168        0.3623455111        2.3732309055
 C          5.5939068765        1.1965761838        1.5608585236
 C          5.1447217005        1.4781603139        0.2368902955
 C          5.8364246562        2.3401252883       -0.6160843738
 C          5.3800565186        2.5810148368       -1.8988937748
 C          4.2319185485        1.9659888411       -2.3641198631
 C          3.5047837123        1.1013383372       -1.5442544373
 C          2.3378756667        0.4214833127       -1.9978527463
 C          1.6243921095       -0.3770562661       -1.1714795512
 C          2.0026285786       -0.5613092220        0.1908216992
 C          3.2197109490        0.0087152971        0.6349663311
 C          3.9564455538        0.8596710502       -0.2240235273
 N         -0.6918235990       -2.8459841260        0.9567286795
 C         -2.0015475673       -2.7371859802        0.5925920815
 C         -2.8917360628       -3.8842766459        0.6842297535
 C         -2.3528277433       -5.1662306079        0.5836058421
 C         -3.1690006720       -6.2775195094        0.6635435612
 C         -4.5335927632       -6.1271191661        0.8505516066
 C         -5.0736823068       -4.8572864082        0.9729475780
 C         -4.2618779093       -3.7414743235        0.8955633378
 C         -2.2635479078       -1.4342618331        0.1969009054
 C         -3.4791514940       -0.7937552007       -0.2838332648
 C         -3.8867885549        0.4371616268        0.2274063828
 C         -5.0403526115        1.0386819180       -0.2397227523
 C         -5.8003548722        0.4238040062       -1.2204869886
 C         -5.4016218144       -0.8004189705       -1.7335673869
 C         -4.2492345999       -1.4061812387       -1.2721562178
 C         -0.1446230149        1.3838899155        0.9776286108
 C          0.2375594326        2.6649698905        0.6407548758
 H          0.5404926492        4.3390539717       -3.1059278016
 H         -0.9713017886        5.0568227967       -2.5199988541
 H          0.5031957681        6.0150424077       -2.5703168412
 H         -1.2433035101        5.5836831161       -0.0521294847
 H          0.1199371087        5.3905729075        1.0482615504
 H          0.1813469799        6.6137350800       -0.2179052901
 H          2.4357970475        3.8728635045       -1.4817661047
 H          2.3814090929        5.5920281783       -1.0781946280
 H          2.3053095452        4.3788201422        0.1965026705
 H         -1.0307897175        2.7992223406       -2.4763205313
 H         -1.6839960642        0.5319844835       -1.9037271552
 H          1.1353171047       -2.2035125574        3.0278931881
 H          3.3278218383       -1.3353097032        3.7590628613
 H          5.2551628519        0.1505934466        3.3734070678
 H          6.5071240569        1.6659424521        1.8985403782
 H          6.7386927500        2.8187520996       -0.2633870017
 H          5.9281662506        3.2508145559       -2.5455087604
 H          3.8890150485        2.1484505234       -3.3730083315
 H          2.0391480162        0.5524801839       -3.0283880870
 H          0.7664576371       -0.9156729810       -1.5443486516
 H         -1.2878488611       -5.2669833765        0.4432672747
 H         -2.7414905581       -7.2662923013        0.5795418898
 H         -5.1732644147       -6.9956138722        0.9085831684
 H         -6.1352642593       -4.7355178998        1.1345569307
 H         -4.6887685524       -2.7566103848        1.0102825473
 H         -3.3046815633        0.9161061795        1.0014301632
 H         -5.3492201304        1.9903284025        0.1676419705
 H         -6.7018688500        0.8952171551       -1.5824083938
 H         -5.9914227038       -1.2838861781       -2.4984500505
 H         -3.9346629542       -2.3593942223       -1.6708089840
 H          0.0913295335        0.9844750689        1.9526347442
 H          0.7746681782        3.2464193908        1.3735483668
