  75
       -110.03141863
 C          3.1752746285        4.5170280005       -0.6233046336
 C          3.1269775164        3.4935698593        0.5137148062
 C          3.1592855530        4.2527645156        1.8472869648
 C          4.3624466515        2.5894600501        0.3954704282
 C          1.8829837860        2.6233912464        0.4643360989
 C          0.8932542867        2.7680406760       -0.4998727107
 C         -0.1902526472        1.9108914132       -0.5549505333
 C         -0.3118742347        0.8834671049        0.3695022052
 N         -1.3338276809       -0.0742597888        0.2541901124
 C         -1.1492172483       -1.4354011769        0.2338830206
 C          0.1610267580       -2.0484238661        0.4140304454
 C          0.3184224121       -3.0074001594        1.4116714108
 C          1.5692894380       -3.4752223108        1.7547901672
 C          2.7146949579       -2.9699561119        1.1341236445
 C          4.0281516281       -3.3515483145        1.5343728321
 C          5.1243508778       -2.8339614742        0.9325011966
 C          5.0078374990       -1.9003666169       -0.1393075964
 C          6.1242761177       -1.3487964376       -0.7704474623
 C          5.9755759787       -0.4559932190       -1.8157657356
 C          4.7161013303       -0.0976696299       -2.2610082568
 C          3.5714989021       -0.6194127835       -1.6558684024
 C          2.2581394562       -0.3027866033       -2.1080448005
 C          1.1629259897       -0.7854112215       -1.4778084611
 C          1.2768436586       -1.6200159681       -0.3274457545
 C          2.5669178094       -2.0433983673        0.0724766531
 C          3.7136456089       -1.5234013923       -0.5751232607
 N         -2.2861435657       -2.0637183154        0.0904964949
 C         -3.2579611109       -1.1114098476       -0.0016371727
 C         -4.6551907251       -1.4924684668       -0.1401786808
 C         -4.9653240704       -2.7155035164       -0.7334373804
 C         -6.2810580374       -3.1077334190       -0.8834078533
 C         -7.3066179879       -2.2888948713       -0.4390723177
 C         -7.0058812740       -1.0819272967        0.1707960491
 C         -5.6911807370       -0.6847638106        0.3253113303
 C         -2.6814070508        0.1463455164        0.0903621668
 C         -3.2583003781        1.4820786161        0.0450042278
 C         -2.8972462085        2.4471137903        0.9836400390
 C         -3.4477188942        3.7138703198        0.9283766734
 C         -4.3619559120        4.0352147460       -0.0608074373
 C         -4.7261648313        3.0808563879       -0.9975643058
 C         -4.1787790453        1.8136405207       -0.9488074385
 C          0.6345825880        0.7643033124        1.3802065791
 C          1.7150679154        1.6198853294        1.4154784976
 H          3.1711562129        4.0221609730       -1.5913197550
 H          2.3348686709        5.2048384337       -0.5686152958
 H          4.0908104335        5.0996522827       -0.5470707484
 H          2.2726494159        4.8753825362        1.9472411255
 H          3.1930927557        3.5688833512        2.6904913563
 H          4.0375257924        4.8928184009        1.8922406619
 H          4.3291384312        2.0252682152       -0.5335343195
 H          5.2684024154        3.1913901289        0.4041745971
 H          4.4174164098        1.8801563362        1.2159669609
 H          0.9604924299        3.5441960457       -1.2435695433
 H         -0.9315679310        2.0252369753       -1.3317746432
 H         -0.5606307444       -3.3560876326        1.9325937618
 H          1.6745680075       -4.2123257756        2.5377425667
 H          4.1262574959       -4.0627812436        2.3424555226
 H          6.1164890325       -3.1222301722        1.2500895891
 H          7.1120782884       -1.6292998769       -0.4340972490
 H          6.8506971763       -0.0391504150       -2.2928106473
 H          4.6079916874        0.5902171048       -3.0879636140
 H          2.1568673894        0.3294720385       -2.9789032598
 H          0.1770000235       -0.5674882209       -1.8594502376
 H         -4.1555352352       -3.3441822766       -1.0696383802
 H         -6.5103007231       -4.0555103955       -1.3488747224
 H         -8.3360850797       -2.5928258472       -0.5601260549
 H         -7.8019095383       -0.4470904484        0.5330426127
 H         -5.4656140168        0.2488591862        0.8180798871
 H         -2.1937211297        2.1988327171        1.7651502559
 H         -3.1642472696        4.4520992040        1.6643373692
 H         -4.7915690435        5.0250585935       -0.1006399289
 H         -5.4391172383        3.3268918782       -1.7707502613
 H         -4.4590960254        1.0679238223       -1.6780696250
 H          0.5311790084       -0.0122913577        2.1232080616
 H          2.4448738567        1.4879580808        2.1987626833
  75
       -110.03140345
 C          4.3398823184        2.6836737314        0.3635742675
 C          3.0872324884        3.5546996343        0.5355224169
 C          3.0931669999        4.6209399039       -0.5626724010
 C          3.1263929353        4.2649887207        1.8956577818
 C          1.8615446164        2.6595465794        0.4742650118
 C          0.8560280028        2.8145775946       -0.4719128072
 C         -0.2131295536        1.9405953462       -0.5370067221
 C         -0.3055271903        0.8856689792        0.3597891116
 N         -1.3231811231       -0.0758227468        0.2369970899
 C         -1.1381456083       -1.4359883787        0.1825710045
 C          0.1671041417       -2.0646039453        0.3387013376
 C          0.3050067527       -3.0718882449        1.2913121147
 C          1.5461665449       -3.5747958879        1.6183815764
 C          2.7027325190       -3.0569046213        1.0295326652
 C          4.0076552260       -3.4768135937        1.4187106478
 C          5.1153275233       -2.9446603009        0.8514993974
 C          5.0193406394       -1.9561732025       -0.1719575312
 C          6.1478926225       -1.3858850067       -0.7637568990
 C          6.0191879669       -0.4395196400       -1.7635554785
 C          4.7681801719       -0.0465098274       -2.2032605873
 C          3.6120754126       -0.5848762237       -1.6359210059
 C          2.3066739891       -0.2342266042       -2.0862299803
 C          1.2001498028       -0.7342865389       -1.4902798961
 C          1.2935091391       -1.6193837905       -0.3763897959
 C          2.5749903625       -2.0780182154        0.0131701615
 C          3.7336629738       -1.5420905111       -0.5993866476
 N         -2.2777016902       -2.0618620443        0.0431078404
 C         -3.2510318943       -1.1092087730       -0.0110077366
 C         -4.6507779037       -1.4883136327       -0.1308827712
 C         -5.6753999020       -0.7019055330        0.3923760508
 C         -6.9929413949       -1.0966989663        0.2578797613
 C         -7.3074029563       -2.2802775575       -0.3898701263
 C         -6.2926992329       -3.0780112570       -0.8930557698
 C         -4.9741094480       -2.6880008988       -0.7631470181
 C         -2.6740085759        0.1467914332        0.1005291038
 C         -3.2573065948        1.4801763779        0.0912860921
 C         -2.8759907282        2.4355086133        1.0321144732
 C         -3.4334750009        3.7001543529        1.0069681776
 C         -4.3765458696        4.0288965738        0.0476916707
 C         -4.7634619560        3.0834331885       -0.8889940417
 C         -4.2080322538        1.8189008848       -0.8713957508
 C          0.6598525645        0.7505096370        1.3502721644
 C          1.7270038275        1.6226055744        1.3943417038
 H          4.4235615313        1.9454718952        1.1556861447
 H          4.3029163413        2.1538106641       -0.5852143815
 H          5.2326114415        3.3049747011        0.3805157120
 H          3.0841429673        4.1633936059       -1.5488750208
 H          2.2381851633        5.2861896657       -0.4683658193
 H          3.9963119907        5.2216206989       -0.4788031875
 H          3.1870827499        3.5516160072        2.7124383595
 H          3.9927254779        4.9203743081        1.9506130441
 H          2.2296456514        4.8658335039        2.0322101515
 H          0.8979814361        3.6140933126       -1.1923649207
 H         -0.9674251469        2.0649252593       -1.2996659491
 H         -0.5828906104       -3.4312878451        1.7892983156
 H          1.6356832871       -4.3497623497        2.3659273211
 H          4.0897791317       -4.2301150429        2.1895380396
 H          6.1010331519       -3.2626945038        1.1605513775
 H          7.1291554588       -1.6938918933       -0.4322972428
 H          6.9034274298       -0.0085476782       -2.2102531557
 H          4.6760284939        0.6815709072       -2.9971475117
 H          2.2207321290        0.4375905696       -2.9286685376
 H          0.2207438299       -0.4910624346       -1.8731494194
 H         -5.4379219436        0.2117358416        0.9164231476
 H         -7.7801275927       -0.4806225542        0.6691437093
 H         -8.3389680965       -2.5839999371       -0.4924141147
 H         -6.5324811606       -4.0080222450       -1.3879074517
 H         -4.1726121775       -3.3018055517       -1.1435414970
 H         -2.1512731470        2.1814705684        1.7920731575
 H         -3.1314778732        4.4317249859        1.7422609000
 H         -4.8085516750        5.0183305825        0.0292529484
 H         -5.4971082874        3.3355190307       -1.6406144459
 H         -4.5033202445        1.0815675311       -1.6031921747
 H          0.5813748643       -0.0498175605        2.0708194813
 H          2.4725615531        1.4777754385        2.1603633211
  75
       -110.03131132
 C          4.0862112316        3.3121400792        1.4538552349
 C          3.0407639478        3.6274539884        0.3815130135
 C          3.7179640853        3.4988976369       -0.9900846712
 C          2.5481749617        5.0657078101        0.5918062293
 C          1.8544267543        2.6798342031        0.4258320094
 C          0.8308826323        2.8206927149       -0.5085168690
 C         -0.2319729816        1.9437249299       -0.5564352101
 C         -0.3039310194        0.8937748500        0.3515192986
 N         -1.3171666280       -0.0740408754        0.2432134347
 C         -1.1305635012       -1.4338505034        0.1849537261
 C          0.1690943084       -2.0705568997        0.3537781007
 C          0.2807459376       -3.0882406170        1.2991190611
 C          1.5100074958       -3.6105431747        1.6395312513
 C          2.6816580041       -3.1014037097        1.0735322669
 C          3.9748887868       -3.5429409782        1.4772961169
 C          5.0978208631       -3.0174691219        0.9346065095
 C          5.0298393936       -2.0143901956       -0.0767890830
 C          6.1745993251       -1.4485572907       -0.6412664439
 C          6.0732860207       -0.4886477858       -1.6313971519
 C          4.8344358731       -0.0778721097       -2.0891239910
 C          3.6629410586       -0.6096193972       -1.5476706168
 C          2.3692650251       -0.2409863281       -2.0175745834
 C          1.2474809271       -0.7363999444       -1.4468644769
 C          1.3116451324       -1.6323032267       -0.3394610369
 C          2.5813601281       -2.1097567559        0.0665342784
 C          3.7562111069       -1.5803315941       -0.5205744173
 N         -2.2696831370       -2.0599314050        0.0396101676
 C         -3.2435125442       -1.1083249877       -0.0141107968
 C         -4.6429661821       -1.4860909543       -0.1423790124
 C         -5.6674667356       -0.7112357075        0.3978489492
 C         -6.9850355249       -1.1028180576        0.2545054501
 C         -7.2993385313       -2.2712893769       -0.4198511518
 C         -6.2846494960       -3.0573511245       -0.9411985643
 C         -4.9658891983       -2.6711356911       -0.8012845646
 C         -2.6681415681        0.1474291110        0.1046778086
 C         -3.2545381605        1.4793812551        0.1052768183
 C         -2.8742008786        2.4282854918        1.0528448164
 C         -3.4349452887        3.6915322613        1.0385347877
 C         -4.3801274940        4.0252654400        0.0832843533
 C         -4.7658798555        3.0863110238       -0.8601576748
 C         -4.2075126488        1.8230692798       -0.8531586368
 C          0.6737911234        0.7746613433        1.3286609109
 C          1.7409373759        1.6532021997        1.3546114005
 H          3.6684135123        3.4148843721        2.4524257785
 H          4.4769567533        2.3049110805        1.3295218696
 H          4.9167823977        4.0091384044        1.3648539068
 H          4.0464944129        2.4737436098       -1.1445271034
 H          3.0393321616        3.7683088427       -1.7941505485
 H          4.5849990722        4.1538138144       -1.0418868724
 H          2.0529888765        5.1560643944        1.5562924713
 H          3.3883742485        5.7561558277        0.5692454503
 H          1.8441538039        5.3602492606       -0.1812085793
 H          0.8659150440        3.6188568246       -1.2334884702
 H         -0.9972348361        2.0561957389       -1.3098498542
 H         -0.6192740194       -3.4417592283        1.7790893936
 H          1.5783259119       -4.3946304220        2.3797025788
 H          4.0353920296       -4.3074352065        2.2390060217
 H          6.0746099566       -3.3520071037        1.2542953410
 H          7.1465851915       -1.7710615706       -0.2964264241
 H          6.9696715598       -0.0615949036       -2.0572602632
 H          4.7643942534        0.6577029946       -2.8781558189
 H          2.3055603153        0.4406840500       -2.8538221812
 H          0.2776664453       -0.4800440108       -1.8450373196
 H         -5.4296845506        0.1916963520        0.9396438455
 H         -7.7723536643       -0.4947362018        0.6766512116
 H         -8.3309807980       -2.5712609012       -0.5314849721
 H         -6.5245712307       -3.9750212071       -1.4582604025
 H         -4.1643524588       -3.2759688791       -1.1959040112
 H         -2.1469892856        2.1703406636        1.8090451038
 H         -3.1349530154        4.4175715011        1.7798853612
 H         -4.8169855047        5.0126211080        0.0751654117
 H         -5.5031687679        3.3416163401       -1.6070030995
 H         -4.5033112483        1.0901434125       -1.5890420220
 H          0.6104900757       -0.0201967297        2.0568283641
 H          2.4916981175        1.5126049622        2.1137301097
  75
       -110.03030106
 C          1.5273152327        5.9106740424        2.9349673327
 C          2.0507723459        5.1397265434        1.7203923720
 C          3.4836363003        4.6803139853        2.0253059123
 C          2.0533986995        6.0894652148        0.5141802290
 C          1.2028138759        3.9228135629        1.3890631345
 C          1.5603056323        3.1124191039        0.3130821079
 C          0.8249346817        1.9969231826       -0.0290921651
 C         -0.2991249673        1.6544364886        0.7135380061
 N         -1.0451224794        0.5137260882        0.3728900179
 C         -0.5649053185       -0.7551130170        0.1643064576
 C          0.8272273667       -1.1225998712        0.3747479389
 C          1.5065153269       -0.6012551029        1.4765367641
 C          2.8322990766       -0.8942435208        1.7058065920
 C          3.5401576917       -1.7275400893        0.8377455333
 C          4.9153932990       -2.0376685569        1.0422693287
 C          5.5832649251       -2.8569963199        0.1976847778
 C          4.9335280213       -3.4420348340       -0.9283448018
 C          5.6033447090       -4.2908103441       -1.8111445821
 C          4.9462485486       -4.8445769016       -2.8944794877
 C          3.6114445069       -4.5664972329       -3.1235814590
 C          2.9021434255       -3.7217881775       -2.2679387616
 C          1.5273574030       -3.4090486978       -2.4733881593
 C          0.8569164405       -2.5844465217       -1.6352937934
 C          1.4962198461       -1.9966053573       -0.5047888429
 C          2.8642802804       -2.2897082885       -0.2734515860
 C          3.5652455133       -3.1497396798       -1.1548876234
 N         -1.5326396249       -1.5671184533       -0.1815507532
 C         -2.6825479866       -0.8382967469       -0.2065700299
 C         -3.9379151126       -1.4580427478       -0.6015837964
 C         -4.0847040276       -2.8365373257       -0.4495957730
 C         -5.2601585467       -3.4607203599       -0.8181557448
 C         -6.3048323458       -2.7208465562       -1.3483242060
 C         -6.1597255186       -1.3538794648       -1.5201479154
 C         -4.9851073816       -0.7236167338       -1.1551507373
 C         -2.4019630178        0.4723733070        0.1459319271
 C         -3.2582089049        1.6423797566        0.2871163538
 C         -4.4304839602        1.5610664388        1.0377382913
 C         -5.2410548861        2.6695180350        1.1876103133
 C         -4.8934683968        3.8733136938        0.5954578473
 C         -3.7330564884        3.9608289450       -0.1548735226
 C         -2.9185548674        2.8548193696       -0.3103995360
 C         -0.6722787456        2.4490999082        1.7880489435
 C          0.0716521341        3.5685842772        2.1142281423
 H          0.5202595907        6.2814356942        2.7593275886
 H          1.5284474392        5.2860931142        3.8251626821
 H          2.1713844230        6.7666009772        3.1249177221
 H          3.4848808078        3.9846858216        2.8619778612
 H          3.9323275568        4.1842153565        1.1694919205
 H          4.1025061322        5.5357336556        2.2864892916
 H          1.0379999861        6.4037182656        0.2816731199
 H          2.6462521761        6.9742393738        0.7359145172
 H          2.4725271713        5.6108446080       -0.3662526354
 H          2.4290204601        3.3517478727       -0.2801699125
 H          1.1174031029        1.3848137563       -0.8695028589
 H          0.9784473482        0.0303696097        2.1757177514
 H          3.3338350210       -0.4799209354        2.5687349512
 H          5.4127276794       -1.5981722386        1.8956343412
 H          6.6268610460       -3.0870408089        0.3601013383
 H          6.6468526559       -4.5125355768       -1.6383295776
 H          5.4805176674       -5.5001848097       -3.5668650210
 H          3.1034890544       -5.0034201754       -3.9714093148
 H          1.0270061472       -3.8502857003       -3.3238185972
 H         -0.1883096513       -2.3704752939       -1.7913507449
 H         -3.2603865796       -3.3994197990       -0.0398522907
 H         -5.3647115188       -4.5286612590       -0.6918037427
 H         -7.2258992857       -3.2077966312       -1.6336423703
 H         -6.9660806213       -0.7749351618       -1.9472687332
 H         -4.8741117308        0.3386113864       -1.3117615614
 H         -4.6962264231        0.6217202455        1.5001540737
 H         -6.1460252728        2.5961297797        1.7726311276
 H         -5.5270322725        4.7393269625        0.7162116366
 H         -3.4612206812        4.8947155504       -0.6249933003
 H         -2.0217225971        2.9260596434       -0.9089759905
 H         -1.5425591027        2.1879995874        2.3716251815
 H         -0.2506368537        4.1602173681        2.9546310196
  75
       -110.03024329
 C          3.0065543963        5.2391368888        2.1959712968
 C          1.9059891128        5.4409650219        1.1512152336
 C          2.5520077037        6.0019467931       -0.1233219628
 C          0.8928520082        6.4500810552        1.7101522162
 C          1.1771081609        4.1512455741        0.8118360904
 C          0.1469589000        4.1739707337       -0.1260122650
 C         -0.5550689388        3.0340100802       -0.4594243530
 C         -0.2415110546        1.8254511313        0.1509538764
 N         -0.9711620210        0.6634674425       -0.1529626020
 C         -0.4791365682       -0.5701179084       -0.5023929088
 C          0.9284959886       -0.8313998060       -0.7564656845
 C          1.6964371799        0.1434607727       -1.3954047380
 C          3.0359241239       -0.0495868523       -1.6489168945
 C          3.6699203872       -1.2367937615       -1.2781581564
 C          5.0550114683       -1.4614564483       -1.5235255515
 C          5.6496838155       -2.6259333008       -1.1756398018
 C          4.9097671119       -3.6723678713       -0.5514234583
 C          5.5020701139       -4.8837471893       -0.1906720158
 C          4.7587086243       -5.8824040986        0.4112578691
 C          3.4131233018       -5.6974955894        0.6690071234
 C          2.7796491408       -4.5012544756        0.3273594720
 C          1.3967666535       -4.2721695892        0.5807682558
 C          0.7988220136       -3.1064269028        0.2407349679
 C          1.5250488406       -2.0566151613       -0.3937153351
 C          2.9056707633       -2.2528336737       -0.6526695483
 C          3.5306065877       -3.4727038371       -0.2921140237
 N         -1.4539037452       -1.4360725486       -0.6366322243
 C         -2.6174660790       -0.7818535090       -0.3731142633
 C         -3.8853366160       -1.4948663935       -0.3860981867
 C         -3.9960882795       -2.6611083681       -1.1424501024
 C         -5.1820535481       -3.3683471910       -1.1692148808
 C         -6.2733173232       -2.9260596962       -0.4389824731
 C         -6.1654164143       -1.7785341025        0.3295580600
 C         -4.9807480786       -1.0677509520        0.3624324006
 C         -2.3400781245        0.5427188682       -0.0751916988
 C         -3.2166349454        1.6597052840        0.2515800874
 C         -2.9745410474        2.4640696665        1.3635687129
 C         -3.8121964723        3.5254155683        1.6510613120
 C         -4.8991627177        3.7976807018        0.8374398926
 C         -5.1494772090        2.9991279947       -0.2670460748
 C         -4.3148330460        1.9385270083       -0.5612871158
 C          0.7854487314        1.7808014004        1.0834859438
 C          1.4842789172        2.9307481765        1.4018149014
 H          2.5952370848        4.8689536464        3.1320381700
 H          3.7633229106        4.5449716555        1.8385425451
 H          3.4926929917        6.1913807746        2.3970235197
 H          3.2524779397        5.2803411973       -0.5383657357
 H          1.8065709236        6.2286491315       -0.8801749418
 H          3.0939441481        6.9169252930        0.1048970492
 H          0.4178850031        6.0499629568        2.6034502859
 H          1.3957849612        7.3779973463        1.9728870965
 H          0.1168569612        6.6768074095        0.9846898406
 H         -0.1215260428        5.0982051015       -0.6135385574
 H         -1.3470817295        3.0757319241       -1.1922178843
 H          1.2287213465        1.0619667001       -1.7178731770
 H          3.6055533134        0.7214585998       -2.1478333919
 H          5.6200821240       -0.6724547263       -1.9999298440
 H          6.7012848817       -2.7885514314       -1.3656548874
 H          6.5534399041       -5.0353030963       -0.3896852386
 H          5.2333679375       -6.8147883105        0.6806755566
 H          2.8371450821       -6.4820206161        1.1385688251
 H          0.8294539347       -5.0598316033        1.0561452596
 H         -0.2530847608       -2.9542701097        0.4209266664
 H         -3.1359067330       -2.9957005589       -1.7013947832
 H         -5.2577699459       -4.2694001976       -1.7606774240
 H         -7.2020003384       -3.4772620831       -0.4613836949
 H         -7.0089401993       -1.4378184408        0.9128706295
 H         -4.8999111203       -0.1866292010        0.9807912958
 H         -2.1363903990        2.2483495010        2.0103701427
 H         -3.6166659780        4.1408823542        2.5169925147
 H         -5.5517109544        4.6272267557        1.0652649092
 H         -5.9973109302        3.2059489537       -0.9034273178
 H         -4.5054927037        1.3143553611       -1.4220239159
 H          1.0334337801        0.8436819227        1.5599387111
 H          2.2733905583        2.8556530258        2.1310627489
