  99
       -158.01828778
 C          7.2308127910       -4.7934997247        0.5675713427
 C          5.8436141441       -4.7964480958        0.5538226389
 C          5.1485948628       -3.6122917306        0.4162852604
 C          5.8387595340       -2.4062087757        0.2901941753
 C          5.1094308191       -1.1516116255        0.1419191919
 N          5.8208505912       -0.0174966074       -0.0027760412
 C          5.1185056805        1.1223228540       -0.1458198218
 C          5.8588103311        2.3709250333       -0.2918010613
 C          7.2533776831        2.3609004980       -0.3114656356
 C          7.9530242363        3.5435272539       -0.4465467281
 C          7.2728864856        4.7460366906       -0.5623787776
 C          5.8858623419        4.7622471826       -0.5431532417
 C          5.1798618978        3.5841444288       -0.4090406518
 N          3.8120250927        1.1560959094       -0.1590942750
 C          3.1315176582       -0.0066081591       -0.0014959363
 C          1.7162362280       -0.0018862736       -0.0016881002
 C          0.9959488972        1.1927144956       -0.2199212467
 C         -0.3788828158        1.1986823411       -0.2255081929
 N         -1.0746814181        2.4016418061       -0.4428216747
 C         -2.1176752919        2.5877324986       -1.3249265072
 C         -2.5402114571        1.7778757675       -2.3693957553
 C         -3.6320159101        2.1941673776       -3.1061786931
 C         -4.2724315229        3.4001281935       -2.8338793109
 C         -3.8178864532        4.2389642298       -1.8330581260
 C         -2.7278587518        3.8382626415       -1.0754702824
 C         -1.9906691687        4.4412258161        0.0014336622
 C         -2.1080739632        5.6410492327        0.6869345030
 C         -1.2174540042        5.9091811579        1.7098504387
 C         -0.2259131271        4.9945597283        2.0570285622
 C         -0.0905109929        3.7912413091        1.3911552523
 C         -0.9738500657        3.5233827473        0.3540618450
 C         -1.1066502560        0.0067022247       -0.0052537861
 N         -2.5087951077        0.0062896962       -0.0132243412
 C         -3.3229959796        0.7644337130        0.8005225065
 C         -2.9796090685        1.6441620697        1.8179207534
 C         -4.0020812682        2.2881269175        2.4862472205
 C         -5.3372694330        2.0474641658        2.1721613209
 C         -5.6858617323        1.1346354659        1.1941671469
 C         -4.6761195179        0.4817127139        0.5040311640
 C         -4.6659699314       -0.5139652557       -0.5312233938
 C         -5.6614797685       -1.1899935168       -1.2199546944
 C         -5.2933185333       -2.0959920557       -2.1972148524
 C         -3.9535245949       -2.3062450450       -2.5131517671
 C         -2.9451923547       -1.6388099431       -1.8461414200
 C         -3.3075159084       -0.7680447969       -0.8277110740
 C         -0.3857477300       -1.1887461088        0.2215415789
 N         -1.0921189106       -2.3839477946        0.4484328550
 C         -1.0103700614       -3.5118693093       -0.3414942013
 C         -0.1286150483       -3.8030318434       -1.3736497713
 C         -0.2836951846       -5.0082837290       -2.0314747318
 C         -1.2930439652       -5.9021725600       -1.6814007344
 C         -2.1816992695       -5.6110035531       -0.6631433224
 C         -2.0443511670       -4.4091416007        0.0148517174
 C         -2.7716404741       -3.7873369583        1.0877923867
 C         -3.8695712972       -4.1632027807        1.8467994068
 C         -4.3071515839       -3.3117114822        2.8445421810
 C         -3.6423888415       -2.1182095852        3.1132150528
 C         -2.5432739402       -1.7261345766        2.3740323566
 C         -2.1382652566       -2.5475331609        1.3317138128
 C          0.9888277574       -1.1918906332        0.2181975623
 N          3.8027584079       -1.1743470231        0.1563248433
 C          7.2334527778       -2.4095510556        0.3039606362
 C          7.9220674137       -3.5982642295        0.4424026266
 H          7.7718638896       -5.7221288259        0.6757974312
 H          5.3056003759       -5.7283442070        0.6507874183
 H          4.0697571951       -3.5989555562        0.4020370322
 H          7.7671649773        1.4165609064       -0.2199223006
 H          9.0331501362        3.5315893829       -0.4609348580
 H          7.8224552008        5.6700267821       -0.6673455609
 H          5.3565502899        5.6998868487       -0.6330106838
 H          4.1007969904        3.5812667235       -0.3915573144
 H          1.5449461351        2.0997212593       -0.4148538709
 H         -2.0284885944        0.8587015914       -2.6081470016
 H         -3.9912216709        1.5719524646       -3.9121300305
 H         -5.1261070443        3.6897938672       -3.4280543491
 H         -4.2973483433        5.1874319078       -1.6442085149
 H         -2.8823199406        6.3465930194        0.4264849221
 H         -1.2908619695        6.8390005745        2.2539426322
 H          0.4505555415        5.2295283804        2.8653112568
 H          0.6734715906        3.0820782757        1.6724854405
 H         -1.9498194905        1.8173101907        2.0909287537
 H         -3.7582931111        2.9887645972        3.2708315666
 H         -6.1093675174        2.5728376814        2.7140588021
 H         -6.7219089026        0.9296925253        0.9711530859
 H         -6.7016921128       -1.0081352811       -0.9963681417
 H         -6.0538943055       -2.6395051473       -2.7375265327
 H         -3.6948754664       -3.0015121606       -3.2977509853
 H         -1.9117672085       -1.7876571996       -2.1200778847
 H          0.6495671790       -3.1101395211       -1.6566387412
 H          0.3913904793       -5.2615782604       -2.8353763541
 H         -1.3815334275       -6.8343558811       -2.2191984286
 H         -2.9692370816       -6.3006865645       -0.4000720796
 H         -4.3682333419       -5.1023803656        1.6613817080
 H         -5.1664587112       -3.5820021892        3.4397008631
 H         -3.9883828744       -1.4865291067        3.9176060787
 H         -2.0122891780       -0.8168432735        2.6088729191
 H          1.5320169443       -2.1015373609        0.4169601532
 H          7.7560113636       -1.4706825088        0.2058591839
 H          9.0025065253       -3.5967226295        0.4529648140
