  99
       -158.01828778
 C          7.2308127910       -4.7934997247        0.5675713427
 C          5.8436141441       -4.7964480958        0.5538226389
 C          5.1485948628       -3.6122917306        0.4162852604
 C          5.8387595340       -2.4062087757        0.2901941753
 C          5.1094308191       -1.1516116255        0.1419191919
 N          5.8208505912       -0.0174966074       -0.0027760412
 C          5.1185056805        1.1223228540       -0.1458198218
 C          5.8588103311        2.3709250333       -0.2918010613
 C          7.2533776831        2.3609004980       -0.3114656356
 C          7.9530242363        3.5435272539       -0.4465467281
 C          7.2728864856        4.7460366906       -0.5623787776
 C          5.8858623419        4.7622471826       -0.5431532417
 C          5.1798618978        3.5841444288       -0.4090406518
 N          3.8120250927        1.1560959094       -0.1590942750
 C          3.1315176582       -0.0066081591       -0.0014959363
 C          1.7162362280       -0.0018862736       -0.0016881002
 C          0.9959488972        1.1927144956       -0.2199212467
 C         -0.3788828158        1.1986823411       -0.2255081929
 N         -1.0746814181        2.4016418061       -0.4428216747
 C         -2.1176752919        2.5877324986       -1.3249265072
 C         -2.5402114571        1.7778757675       -2.3693957553
 C         -3.6320159101        2.1941673776       -3.1061786931
 C         -4.2724315229        3.4001281935       -2.8338793109
 C         -3.8178864532        4.2389642298       -1.8330581260
 C         -2.7278587518        3.8382626415       -1.0754702824
 C         -1.9906691687        4.4412258161        0.0014336622
 C         -2.1080739632        5.6410492327        0.6869345030
 C         -1.2174540042        5.9091811579        1.7098504387
 C         -0.2259131271        4.9945597283        2.0570285622
 C         -0.0905109929        3.7912413091        1.3911552523
 C         -0.9738500657        3.5233827473        0.3540618450
 C         -1.1066502560        0.0067022247       -0.0052537861
 N         -2.5087951077        0.0062896962       -0.0132243412
 C         -3.3229959796        0.7644337130        0.8005225065
 C         -2.9796090685        1.6441620697        1.8179207534
 C         -4.0020812682        2.2881269175        2.4862472205
 C         -5.3372694330        2.0474641658        2.1721613209
 C         -5.6858617323        1.1346354659        1.1941671469
 C         -4.6761195179        0.4817127139        0.5040311640
 C         -4.6659699314       -0.5139652557       -0.5312233938
 C         -5.6614797685       -1.1899935168       -1.2199546944
 C         -5.2933185333       -2.0959920557       -2.1972148524
 C         -3.9535245949       -2.3062450450       -2.5131517671
 C         -2.9451923547       -1.6388099431       -1.8461414200
 C         -3.3075159084       -0.7680447969       -0.8277110740
 C         -0.3857477300       -1.1887461088        0.2215415789
 N         -1.0921189106       -2.3839477946        0.4484328550
 C         -1.0103700614       -3.5118693093       -0.3414942013
 C         -0.1286150483       -3.8030318434       -1.3736497713
 C         -0.2836951846       -5.0082837290       -2.0314747318
 C         -1.2930439652       -5.9021725600       -1.6814007344
 C         -2.1816992695       -5.6110035531       -0.6631433224
 C         -2.0443511670       -4.4091416007        0.0148517174
 C         -2.7716404741       -3.7873369583        1.0877923867
 C         -3.8695712972       -4.1632027807        1.8467994068
 C         -4.3071515839       -3.3117114822        2.8445421810
 C         -3.6423888415       -2.1182095852        3.1132150528
 C         -2.5432739402       -1.7261345766        2.3740323566
 C         -2.1382652566       -2.5475331609        1.3317138128
 C          0.9888277574       -1.1918906332        0.2181975623
 N          3.8027584079       -1.1743470231        0.1563248433
 C          7.2334527778       -2.4095510556        0.3039606362
 C          7.9220674137       -3.5982642295        0.4424026266
 H          7.7718638896       -5.7221288259        0.6757974312
 H          5.3056003759       -5.7283442070        0.6507874183
 H          4.0697571951       -3.5989555562        0.4020370322
 H          7.7671649773        1.4165609064       -0.2199223006
 H          9.0331501362        3.5315893829       -0.4609348580
 H          7.8224552008        5.6700267821       -0.6673455609
 H          5.3565502899        5.6998868487       -0.6330106838
 H          4.1007969904        3.5812667235       -0.3915573144
 H          1.5449461351        2.0997212593       -0.4148538709
 H         -2.0284885944        0.8587015914       -2.6081470016
 H         -3.9912216709        1.5719524646       -3.9121300305
 H         -5.1261070443        3.6897938672       -3.4280543491
 H         -4.2973483433        5.1874319078       -1.6442085149
 H         -2.8823199406        6.3465930194        0.4264849221
 H         -1.2908619695        6.8390005745        2.2539426322
 H          0.4505555415        5.2295283804        2.8653112568
 H          0.6734715906        3.0820782757        1.6724854405
 H         -1.9498194905        1.8173101907        2.0909287537
 H         -3.7582931111        2.9887645972        3.2708315666
 H         -6.1093675174        2.5728376814        2.7140588021
 H         -6.7219089026        0.9296925253        0.9711530859
 H         -6.7016921128       -1.0081352811       -0.9963681417
 H         -6.0538943055       -2.6395051473       -2.7375265327
 H         -3.6948754664       -3.0015121606       -3.2977509853
 H         -1.9117672085       -1.7876571996       -2.1200778847
 H          0.6495671790       -3.1101395211       -1.6566387412
 H          0.3913904793       -5.2615782604       -2.8353763541
 H         -1.3815334275       -6.8343558811       -2.2191984286
 H         -2.9692370816       -6.3006865645       -0.4000720796
 H         -4.3682333419       -5.1023803656        1.6613817080
 H         -5.1664587112       -3.5820021892        3.4397008631
 H         -3.9883828744       -1.4865291067        3.9176060787
 H         -2.0122891780       -0.8168432735        2.6088729191
 H          1.5320169443       -2.1015373609        0.4169601532
 H          7.7560113636       -1.4706825088        0.2058591839
 H          9.0025065253       -3.5967226295        0.4529648140
  99
       -158.01812387
 C          7.2536587675       -4.7200178993        0.9862703359
 C          5.8667169989       -4.7314671885        0.9638647543
 C          5.1668558500       -3.5681056365        0.7162167233
 C          5.8520017608       -2.3746350743        0.4866969117
 C          5.1187169911       -1.1393080677        0.2321577035
 N          5.8285772793       -0.0188363249        0.0010021870
 C          5.1253084465        1.1068061758       -0.2254736662
 C          5.8641784604        2.3358021614       -0.4926367407
 C          7.2587536567        2.3246889824       -0.5143518202
 C          7.9569814230        3.4868116102       -0.7754533807
 C          7.2755249642        4.6698196569       -1.0166995885
 C          5.8886364306        4.6872344217       -0.9952972103
 C          5.1839647399        3.5295279784       -0.7352747638
 N          3.8187887947        1.1412619515       -0.2215950195
 C          3.1394605341       -0.0084882034        0.0143076396
 C          1.7240773774       -0.0032620089        0.0184792412
 C          1.0041310605        1.1928101409       -0.1937957931
 C         -0.3706466003        1.2006205122       -0.1947475236
 N         -1.0667575026        2.4083273183       -0.3847549282
 C         -2.1244414210        2.6091669745       -1.2462072104
 C         -2.5540018423        1.8258559141       -2.3079306437
 C         -3.6640973676        2.2489608120       -3.0128644000
 C         -4.3152928940        3.4375217029       -2.6937021127
 C         -3.8525098601        4.2535262340       -1.6779283964
 C         -2.7441878560        3.8450402715       -0.9517531445
 C         -1.9963557515        4.4256722669        0.1299710572
 C         -2.1151163574        5.6056469210        0.8487285910
 C         -1.2118171971        5.8555908121        1.8650828936
 C         -0.2073412410        4.9412769273        2.1735290818
 C         -0.0707362015        3.7571387281        1.4742002610
 C         -0.9658702708        3.5085118531        0.4425565108
 C         -1.0984270870        0.0054836073        0.0085390841
 N         -2.5007102415        0.0040979319       -0.0054211484
 C         -3.3183104102        0.7412757754        0.8236930238
 C         -2.9783976412        1.5980730537        1.8615562097
 C         -4.0034540373        2.2257154876        2.5412977940
 C         -5.3374227857        1.9901449591        2.2184180166
 C         -5.6823953066        1.0996323019        1.2187762913
 C         -4.6701322814        0.4643418852        0.5160896688
 C         -4.6553960675       -0.5050761970       -0.5437523462
 C         -5.6475307009       -1.1623473817       -1.2550627477
 C         -5.2747078737       -2.0405706307       -2.2557126203
 C         -3.9335803747       -2.2413686710       -2.5719069308
 C         -2.9284549639       -1.5921286722       -1.8825246897
 C         -3.2956711368       -0.7500825830       -0.8418987097
 C         -0.3782152017       -1.1925124331        0.2236631328
 N         -1.0861662224       -2.3936246672        0.4139006630
 C         -1.0044562022       -3.4905327880       -0.4194716583
 C         -0.1060511506       -3.7524373869       -1.4449816439
 C         -0.2671836831       -4.9252537889       -2.1576968984
 C         -1.2982273489       -5.8156589878       -1.8671327658
 C         -2.2020072275       -5.5539928749       -0.8542539459
 C         -2.0589130594       -4.3851462657       -0.1218259066
 C         -2.8006564255       -3.7952792059        0.9592518980
 C         -3.9232416237       -4.1817963203        1.6754681302
 C         -4.3732472039       -3.3616467075        2.6937038914
 C         -3.6974962315       -2.1901915321        3.0245364162
 C         -2.5737994527       -1.7882774023        2.3288120252
 C         -2.1550196289       -2.5759510585        1.2661409711
 C          0.9962799902       -1.1942120017        0.2323490154
 N          3.8120415633       -1.1644309686        0.2423348674
 C          7.2465637419       -2.3696597247        0.5083220652
 C          7.9399527707       -3.5373565409        0.7575901209
 H          7.7983769353       -5.6320937955        1.1820254233
 H          5.3326051082       -5.6535215744        1.1421471975
 H          4.0879021874       -3.5614071269        0.6971383133
 H          7.7734744710        1.3952898596       -0.3259841790
 H          9.0371309587        3.4740195586       -0.7926198068
 H          7.8241035683        5.5775779574       -1.2213121391
 H          5.3581714932        5.6093899116       -1.1838767029
 H          4.1050078259        3.5272959723       -0.7167627235
 H          1.5537265864        2.1011831539       -0.3805164467
 H         -2.0347366664        0.9210409235       -2.5827362929
 H         -4.0298318225        1.6454815304       -3.8300403322
 H         -5.1840140263        3.7322588527       -3.2630320872
 H         -4.3401898605        5.1897491314       -1.4525541248
 H         -2.8999692384        6.3098554836        0.6181674204
 H         -1.2855815889        6.7700033204        2.4345309102
 H          0.4788717682        5.1612272155        2.9778273776
 H          0.7037846224        3.0484970869        1.7263533835
 H         -1.9492846421        1.7660216027        2.1404513113
 H         -3.7625622266        2.9090382707        3.3418619126
 H         -6.1117485006        2.5017393472        2.7702222524
 H         -6.7176262503        0.8985880580        0.9886251541
 H         -6.6888018192       -0.9872920747       -1.0311325927
 H         -6.0327805706       -2.5687469158       -2.8144494542
 H         -3.6713092805       -2.9140357538       -3.3747990486
 H         -1.8937360389       -1.7319592138       -2.1563984391
 H          0.6883020918       -3.0609282643       -1.6825991417
 H          0.4198452496       -5.1548725096       -2.9585632526
 H         -1.3919623081       -6.7210981782       -2.4479541604
 H         -3.0066874683       -6.2401316389       -0.6379617766
 H         -4.4316284602       -5.1046572354        1.4412453438
 H         -5.2524279134       -3.6395980300        3.2553768825
 H         -4.0550781915       -1.5833904758        3.8428235849
 H         -2.0358108961       -0.8963258877        2.6100030892
 H          1.5390728407       -2.1053489443        0.4252419503
 H          7.7653124807       -1.4404338550        0.3299738615
 H          9.0201818654       -3.5289973107        0.7749094022
  99
       -158.01789906
 C          7.2405487492       -4.6510541512        1.2903818604
 C          5.8537550941       -4.6619912495        1.2627648886
 C          5.1572173751       -3.5178411247        0.9310605033
 C          5.8455874579       -2.3444736349        0.6209484628
 C          5.1149374472       -1.1275923174        0.2842097545
 N          5.8258073628       -0.0195243160        0.0013093729
 C          5.1230752660        1.0937079553       -0.2813670642
 C          5.8628071079        2.3061102721       -0.6141420474
 C          7.2571120484        2.2898122365       -0.6470076164
 C          7.9558277566        3.4337881004       -0.9783575246
 C          7.2750784183        4.6039545570       -1.2778929961
 C          5.8884401738        4.6263389933       -1.2456071349
 C          5.1833532623        3.4867074322       -0.9162147764
 N          3.8167421069        1.1299199370       -0.2772272061
 C          3.1365900582       -0.0099043627        0.0007017174
 C          1.7210269933       -0.0052414003       -0.0005754163
 C          1.0011331299        1.1923485314       -0.2031696496
 C         -0.3735928416        1.2007723995       -0.1951217969
 N         -1.0701014285        2.4120371454       -0.3606906702
 C         -2.1307154276        2.6300193080       -1.2140946200
 C         -2.5617047455        1.8689701103       -2.2913477044
 C         -3.6727698098        2.3068430360       -2.9856180710
 C         -4.3243398421        3.4875143873       -2.6391796680
 C         -3.8618610090        4.2806992248       -1.6052705672
 C         -2.7521030918        3.8576569111       -0.8898323304
 C         -2.0039342737        4.4137751541        0.2045381219
 C         -2.1251394288        5.5739499461        0.9543701332
 C         -1.2208080521        5.8000391878        1.9754333544
 C         -0.2121875931        4.8819322481        2.2579953753
 C         -0.0731089471        3.7171379105        1.5277454352
 C         -0.9701709915        3.4923194459        0.4922913629
 C         -1.1018285254        0.0042757911       -0.0022764231
 N         -2.5044097056        0.0081332981       -0.0042391715
 C         -3.3105282669        0.7394315555        0.8413480873
 C         -2.9568956189        1.5691777067        1.8964072696
 C         -3.9719691907        2.1968602809        2.5910354117
 C         -5.3095775904        1.9874322559        2.2652292696
 C         -5.6686471020        1.1224235160        1.2483037519
 C         -4.6664627796        0.4868910638        0.5313532167
 C         -4.6666446590       -0.4620417120       -0.5469909630
 C         -5.6689239596       -1.0933678885       -1.2675951812
 C         -5.3098603530       -1.9588403564       -2.2841553716
 C         -3.9720000958       -2.1732085584       -2.6057834688
 C         -2.9567991334       -1.5501251370       -1.9071446423
 C         -3.3107489232       -0.7198278956       -0.8525974868
 C         -0.3817316165       -1.1969252812        0.1917220865
 N         -1.0870537675       -2.4028914076        0.3588823818
 C         -0.9952277858       -3.4858675740       -0.4914867522
 C         -0.1007114777       -3.7191938188       -1.5271605101
 C         -0.2484245918       -4.8848595742       -2.2545754196
 C         -1.2628786930       -5.7955948720       -1.9688624720
 C         -2.1641137570       -5.5613994446       -0.9470890597
 C         -2.0344569225       -4.4000658811       -0.2001194265
 C         -2.7773719460       -3.8366331652        0.8940965835
 C         -3.8883921730       -4.2512365135        1.6127313710
 C         -4.3440789132       -3.4527884962        2.6454114293
 C         -3.6848192590       -2.2751299832        2.9875486356
 C         -2.5722694246       -1.8457642395        2.2902958898
 C         -2.1478810518       -2.6120279422        1.2143105470
 C          0.9929568160       -1.1980379605        0.2010484310
 N          3.8082781816       -1.1545313484        0.2795095972
 C          7.2400904445       -2.3402657102        0.6477103162
 C          7.9301562408       -3.4887958969        0.9811047165
 H          7.7826644956       -5.5477614703        1.5527761316
 H          5.3171473305       -5.5678698310        1.5047487154
 H          4.0784996323       -3.5103534263        0.9076456848
 H          7.7714037730        1.3704476986       -0.4131462060
 H          9.0357843904        3.4169962282       -1.0035033559
 H          7.8238345438        5.4968034494       -1.5396357501
 H          5.3586716723        5.5386052688       -1.4792957387
 H          4.1045904059        3.4880802486       -0.8897823814
 H          1.5500042297        2.1027880382       -0.3817989827
 H         -2.0431065637        0.9694999134       -2.5845601747
 H         -4.0399884936        1.7209346665       -3.8148400330
 H         -5.1940457808        3.7940774852       -3.2006846100
 H         -4.3506249724        5.2109542698       -1.3586169469
 H         -2.9117921328        6.2822213609        0.7432062048
 H         -1.2979236476        6.6978866034        2.5702288459
 H          0.4748444223        5.0831781002        3.0664669250
 H          0.7042147824        3.0044194957        1.7589404459
 H         -1.9249406880        1.7168233132        2.1764623379
 H         -3.7204929378        2.8594436700        3.4056684544
 H         -6.0756393159        2.4984477304        2.8289850529
 H         -6.7069504548        0.9412867968        1.0155299422
 H         -6.7073028547       -0.9083381789       -1.0382182796
 H         -6.0760163945       -2.4671923836       -2.8502216313
 H         -3.7203843483       -2.8367155648       -3.4196515092
 H         -1.9244821763       -1.7012435059       -2.1839744839
 H          0.6811391972       -3.0122080921       -1.7607095968
 H          0.4355134956       -5.0919816527       -3.0641533719
 H         -1.3461835891       -6.6946933378       -2.5609638622
 H         -2.9555093845       -6.2637614334       -0.7337964705
 H         -4.3842906103       -5.1782806523        1.3682647285
 H         -5.2151480113       -3.7521996493        3.2086144280
 H         -4.0470757783       -1.6848427230        3.8157845734
 H         -2.0472477896       -0.9491786692        2.5807716821
 H          1.5353844850       -2.1121011977        0.3809057196
 H          7.7614055630       -1.4270269228        0.4060632866
 H          9.0102987929       -3.4808728539        1.0031962083
  99
       -158.01731551
 C          7.3427090902       -4.7534741011        0.2658705162
 C          5.9676928160       -4.7983649112        0.0879414937
 C          5.2369884237       -3.6291640160        0.0246947269
 C          5.8795186353       -2.3960028740        0.1382159876
 C          5.1170172196       -1.1545886561        0.0643368217
 N          5.7978555518        0.0064617873        0.1081902816
 C          5.0730759113        1.1370063213        0.0127436044
 C          5.7676086218        2.4152970861        0.1151550768
 C          7.1510526301        2.4525602925        0.2876992753
 C          7.8002569974        3.6643202745        0.4173611200
 C          7.0806931838        4.8486272556        0.3762308804
 C          5.7047420279        4.8178412550        0.2016788074
 C          5.0490145355        3.6107756795        0.0718629782
 N          3.7757912762        1.1363636628       -0.1450551209
 C          3.1227449995       -0.0520672373       -0.1439610133
 C          1.7085562199       -0.0625275692       -0.2091381753
 C          0.9959710119        1.1310499335       -0.4571653497
 C         -0.3781760743        1.1509417482       -0.4368228658
 N         -1.0702305557        2.3465433234       -0.6954862224
 C         -2.1498802171        2.4847755933       -1.5429021856
 C         -2.6320584330        1.6063884633       -2.5026381790
 C         -3.7455958715        1.9884765577       -3.2253731849
 C         -4.3515121650        3.2253740433       -3.0219321483
 C         -3.8391941450        4.1284745159       -2.1087958329
 C         -2.7253628169        3.7635502455       -1.3675616958
 C         -1.9275645644        4.4343323117       -0.3774737294
 C         -1.9911389614        5.6890027011        0.2096668005
 C         -1.0462538063        6.0230405263        1.1618471087
 C         -0.0543141375        5.1196691266        1.5361363461
 C          0.0272270906        3.8623991004        0.9687302138
 C         -0.9106672012        3.5267668803        0.0012042514
 C         -1.1121311050       -0.0234707919       -0.1479910698
 N         -2.5073811111        0.0247419671       -0.0198723227
 C         -3.1878257917        0.8248410337        0.8748344391
 C         -2.6883182088        1.7186818530        1.8118533956
 C         -3.5940795449        2.3960473979        2.6042638272
 C         -4.9639637287        2.1737510953        2.4899206541
 C         -5.4632905293        1.2485669099        1.5920634390
 C         -4.5731957051        0.5630449074        0.7791197695
 C         -4.7240413555       -0.4632959065       -0.2144456805
 C         -5.8176158903       -1.1433170526       -0.7276639121
 C         -5.6058928706       -2.0943331838       -1.7084081409
 C         -4.3272571765       -2.3469892923       -2.1989784129
 C         -3.2237988171       -1.6778149140       -1.7076545253
 C         -3.4242048573       -0.7582103822       -0.6870152387
 C         -0.3995268769       -1.2266300318        0.0616790205
 N         -1.1083856927       -2.4106817330        0.3365986062
 C         -1.0823318954       -3.5464381241       -0.4446557213
 C         -0.2755848524       -3.8473938838       -1.5335724232
 C         -0.4725706430       -5.0616939697       -2.1632061410
 C         -1.4509842370       -5.9537880425       -1.7303258319
 C         -2.2675984992       -5.6512367841       -0.6564097114
 C         -2.0874175714       -4.4399640453       -0.0056401002
 C         -2.7381734112       -3.8050659966        1.1079786912
 C         -3.7827885726       -4.1695139578        1.9437858299
 C         -4.1509284559       -3.3053041974        2.9584929368
 C         -3.4665022309       -2.1112541921        3.1688217650
 C         -2.4181718468       -1.7308858166        2.3537584058
 C         -2.0879361403       -2.5636355788        1.2941185794
 C          0.9746812008       -1.2476235025        0.0123413756
 N          3.8144353231       -1.2131477258       -0.0331725109
 C          7.2624372559       -2.3571862522        0.3164736216
 C          7.9865291319       -3.5309491410        0.3804159287
 H          7.9114915751       -5.6705318956        0.3146842679
 H          5.4672176294       -5.7517035707       -0.0015685518
 H          4.1669761922       -3.6484235749       -0.1146832851
 H          7.6958594228        1.5218048645        0.3201720146
 H          8.8717989222        3.6892976979        0.5528505116
 H          7.5907679259        5.7950099920        0.4807737175
 H          5.1441219545        5.7409504367        0.1715176860
 H          3.9781309798        3.5704393919       -0.0557269653
 H          1.5515968044        2.0241287614       -0.6926328252
 H         -2.1472553602        0.6613860581       -2.6907850288
 H         -4.1494700333        1.3144691833       -3.9659342311
 H         -5.2234542941        3.4873490420       -3.6022729535
 H         -4.2916562797        5.0994217067       -1.9759689258
 H         -2.7653472523        6.3862719225       -0.0723479169
 H         -1.0763354383        6.9965560005        1.6278782685
 H          0.6663842782        5.4069217294        2.2872799697
 H          0.7929427870        3.1649630415        1.2735541497
 H         -1.6273355277        1.8722062512        1.9360019972
 H         -3.2289096142        3.1060294391        3.3311816076
 H         -5.6418170279        2.7229827141        3.1260951900
 H         -6.5235946932        1.0577067835        1.5256333950
 H         -6.8124300266       -0.9310532255       -0.3664398757
 H         -6.4439428526       -2.6416306637       -2.1132971521
 H         -4.1934461440       -3.0792509230       -2.9811776129
 H         -2.2409529468       -1.8675438512       -2.1119546834
 H          0.4786055388       -3.1556413249       -1.8779040174
 H          0.1444906117       -5.3240810491       -3.0096863424
 H         -1.5733419670       -6.8936103289       -2.2477694886
 H         -3.0324353588       -6.3394305516       -0.3300532312
 H         -4.2947748900       -5.1092604441        1.8030237324
 H         -4.9697655282       -3.5657221739        3.6122207989
 H         -3.7559585006       -1.4694386321        3.9873485877
 H         -1.8696471048       -0.8216242798        2.5440991456
 H          1.5114757186       -2.1629632321        0.2031706908
 H          7.7477046600       -1.3973498978        0.4028705545
 H          9.0574403348       -3.4962940296        0.5188661368
