  57
        -93.03944066
 C         -5.3020624912       -5.1850535301       -0.3876490886
 O         -5.5519567702       -3.8038066838       -0.2752958210
 C         -4.5060146180       -2.9435580434       -0.2167196304
 C         -3.1595430055       -3.3270419049       -0.2788992306
 C         -2.1448530159       -2.3888425662       -0.2032602046
 C         -2.4832507286       -1.0532187140       -0.0523545846
 C         -3.8465370522       -0.6479194863       -0.0319161763
 C         -4.8521902191       -1.5929600054       -0.1044475776
 C         -3.8407441407        0.7845537302        0.0498725279
 C         -4.8547019621        1.7297587919        0.1099630667
 C         -4.5008023014        3.0715623410        0.2233837714
 O         -5.3821647211        4.0974874251        0.2867924313
 C         -6.7607362573        3.8187147137        0.2284755610
 C         -3.1448345337        3.4480801273        0.2997093643
 C         -2.1315672168        2.5191750966        0.2357142021
 C         -2.4773677920        1.1800642490        0.0827939013
 N         -1.6742207264        0.0623994639        0.0190308224
 C         -0.2888774934        0.0576987762        0.0190592574
 C          0.4286812905       -0.8651649190        0.8064721155
 C          1.7924376764       -0.8695857505        0.8058864839
 C          2.5424982327        0.0407196355        0.0104238550
 C          3.9636511400        0.0288247214        0.0034668466
 C          4.7462185752        1.2141247594       -0.2186749265
 C          4.1795418609        2.4916423842       -0.3285630588
 N          3.7897299525        3.5743112704       -0.3903573517
 C          6.1385531366        1.1459290484       -0.2103723836
 C          6.9825348148        2.3624498363       -0.4210693101
 N          6.7841293226        0.0036331897       -0.0059663087
 C          6.1200082098       -1.1270675756        0.2011090046
 C          6.9437976921       -2.3589280321        0.4031668778
 C          4.7267450456       -1.1709901978        0.2179447094
 C          4.1374326534       -2.4379733442        0.3261546428
 N          3.7264511368       -3.5129833534        0.3845694259
 C          1.7986299196        0.9624159283       -0.7776690016
 C          0.4348843558        0.9742767616       -0.7700829233
 H         -6.2816811971       -5.6599563481       -0.4002806813
 H         -4.7729877981       -5.4229160745       -1.3155617368
 H         -4.7288851406       -5.5599614738        0.4657579997
 H         -2.8927508321       -4.3642099249       -0.3966072233
 H         -1.1155772487       -2.7021286014       -0.2785500794
 H         -5.8947595072       -1.3210389012       -0.0837476197
 H         -5.8834567571        1.4108483782        0.0756358538
 H         -7.2593438869        4.7846610030        0.2887348935
 H         -7.0791973670        3.1941415440        1.0689797868
 H         -7.0312409744        3.3296056390       -0.7125144998
 H         -2.9249624259        4.4962718500        0.4178159234
 H         -1.1017485596        2.8272128435        0.3204459592
 H         -0.1149173270       -1.5232440039        1.4680542959
 H          2.3135319346       -1.5401786661        1.4701106816
 H          8.0318597072        2.0892226827       -0.3539681381
 H          6.7546428307        3.1189596562        0.3287530159
 H          6.7840428113        2.7986143109       -1.3994181369
 H          6.7154220189       -3.0989172748       -0.3631635406
 H          6.7255578346       -2.8092541951        1.3707351011
 H          7.9978096957       -2.1001988666        0.3538359735
 H          2.3234701208        1.6287916197       -1.4430861523
 H         -0.1047959039        1.6402826538       -1.4267479990
  57
        -93.03933718
 C         -5.4144447751       -5.1580403140       -0.3241574178
 O         -5.6326283814       -3.7714786534       -0.2122407979
 C         -4.5683647380       -2.9321181885       -0.1914906610
 C         -3.2322855789       -3.3425861057       -0.2939617403
 C         -2.1973797564       -2.4244119404       -0.2536733225
 C         -2.5045615636       -1.0817887355       -0.0982971076
 C         -3.8584398460       -0.6493588650       -0.0373144597
 C         -4.8842222476       -1.5745295771       -0.0746853416
 C         -3.8219060229        0.7827757077        0.0418921120
 C         -4.8143366806        1.7475760555        0.1396353461
 C         -4.4302223984        3.0818464259        0.2437861437
 O         -5.2881367983        4.1242949397        0.3461682775
 C         -6.6729207766        3.8714451687        0.3593135113
 C         -3.0653874814        3.4319763187        0.2686318291
 C         -2.0734585686        2.4834251226        0.1689147783
 C         -2.4507619242        1.1513276504        0.0302446368
 N         -1.6721034770        0.0174654106       -0.0544669600
 C         -0.2871456270       -0.0094104292       -0.0738017500
 C          0.4275451178       -0.9343187633        0.7140949994
 C          1.7914919847       -0.9337494723        0.7244121058
 C          2.5433261777       -0.0127189247       -0.0563635812
 C          3.9638834093        0.0151881043       -0.0185535391
 C          4.7127379295        1.2271004314       -0.2109787258
 C          4.1049872252        2.4840531322       -0.3370243481
 N          3.6787771530        3.5522831673       -0.4072804100
 C          6.1050969430        1.2071883398       -0.1493732962
 C          6.9131858523        2.4531308858       -0.3258589397
 N          6.7811240504        0.0879042362        0.0819118818
 C          6.1488657853       -1.0648830918        0.2659192425
 C          7.0063151881       -2.2656981881        0.5099701452
 C          4.7584449469       -1.1576375142        0.2267741671
 C          4.2065895370       -2.4427626311        0.3158685818
 N          3.8245632242       -3.5293027371        0.3579142534
 C          1.8024525448        0.8910149375       -0.8679239130
 C          0.4388796903        0.8976870712       -0.8715555062
 H         -6.4033595936       -5.6129351399       -0.3018583700
 H         -4.9210591206       -5.4117791701       -1.2674036330
 H         -4.8213272096       -5.5399261239        0.5123226500
 H         -2.9901426667       -4.3854075182       -0.4151972590
 H         -1.1770996750       -2.7579952679       -0.3586992413
 H         -5.9200507092       -1.2819037123       -0.0223137385
 H         -5.8497245895        1.4489213324        0.1416995988
 H         -7.0022193192        3.3933035281       -0.5684842104
 H         -7.1492195863        4.8461110877        0.4509514311
 H         -6.9578456586        3.2477347376        1.2124099599
 H         -2.8207275583        4.4755422368        0.3784750069
 H         -1.0355374281        2.7714459588        0.2170458004
 H         -0.1185418341       -1.5953882296        1.3705743302
 H          2.3099033260       -1.6055607313        1.3894982839
 H          6.7157479655        2.9014323131       -1.2987756887
 H          7.9695111774        2.2125253655       -0.2453913496
 H          6.6495098347        3.1876338537        0.4343090637
 H          6.8043203323       -3.0367294502       -0.2323261588
 H          6.7950990758       -2.6895284039        1.4912447184
 H          8.0526846613       -1.9776447365        0.4602578468
 H          2.3310763897        1.5496243150       -1.5382439201
 H         -0.0988471692        1.5542085760       -1.5394030039
  57
        -93.03894406
 C         -6.6744266251       -3.8275858598       -0.2355012008
 O         -5.2933141003       -4.0923689847       -0.2878724766
 C         -4.4215502213       -3.0573006973       -0.2219343639
 C         -3.0626822480       -3.4202207998       -0.2894844583
 C         -2.0588359073       -2.4803406300       -0.2230395089
 C         -2.4182787128       -1.1451001536       -0.0749647233
 C         -3.7849123286       -0.7625378012       -0.0496314282
 C         -4.7890870797       -1.7186464567       -0.1138921018
 C         -3.8039423780        0.6697843744        0.0296796596
 C         -4.8331114171        1.5986416802        0.0985895015
 C         -4.5011208598        2.9461267851        0.2115549598
 O         -5.4000451328        3.9571579202        0.2857083130
 C         -6.7738642251        3.6545780199        0.2506500461
 C         -3.1522538214        3.3450974406        0.2762815477
 C         -2.1238864765        2.4325292446        0.2049000491
 C         -2.4479712761        1.0885664686        0.0543749488
 N         -1.6269477242       -0.0175383800       -0.0104683422
 C         -0.2425396439        0.0005293670       -0.0068017140
 C          0.4875561220       -0.9119870988        0.7820235078
 C          1.8507945739       -0.8907618868        0.7902491977
 C          2.5891602201        0.0363806849        0.0026003614
 C          4.0099280113        0.0512295684        0.0056564437
 C          4.7719504639        1.2520415715       -0.2068005750
 C          4.1818195342        2.5190105651       -0.3126207044
 N          3.7705458428        3.5937807008       -0.3710387138
 C          6.1651351436        1.2094611671       -0.1904709430
 C          6.9880055071        2.4424006099       -0.3884338511
 N          6.8299600265        0.0782743378        0.0128395678
 C          6.1860330760       -1.0654894293        0.2122359180
 C          7.0307291508       -2.2831304898        0.4129119740
 C          4.7938601252       -1.1348573736        0.2213519268
 C          4.2282819338       -2.4133194841        0.3229393168
 N          3.8377296565       -3.4959877185        0.3781262268
 C          1.8330161814        0.9462634463       -0.7882186808
 C          0.4694745387        0.9323266741       -0.7895864510
 H         -6.9973245502       -3.2129949367       -1.0818687632
 H         -7.1629592020       -4.7989742171       -0.2899169934
 H         -6.9531798694       -3.3347204536        0.7012029591
 H         -2.8313751092       -4.4664150280       -0.4030081629
 H         -1.0258870299       -2.7790144582       -0.3021458200
 H         -5.8222265745       -1.4124778763       -0.0873872588
 H         -5.8578138014        1.2652537773        0.0719764677
 H         -7.0529207580        3.1632227188       -0.6868317986
 H         -7.2880947284        4.6114545881        0.3219590815
 H         -7.0670303965        3.0230758877        1.0953704029
 H         -2.9487719058        4.3967278425        0.3924761738
 H         -1.0990553835        2.7581749178        0.2832494972
 H         -0.0476170312       -1.5822349746        1.4380935336
 H          2.3798724018       -1.5527228216        1.4566776528
 H          8.0420668411        2.1829541918       -0.3459424031
 H          6.7638672826        3.1768033775        0.3843211619
 H          6.7650594564        2.8997937421       -1.3515251970
 H          8.0800110395       -2.0027243449        0.3850903230
 H          6.8308720295       -3.0163674127       -0.3679617883
 H          6.8044255465       -2.7518434163        1.3699606398
 H          2.3497380187        1.6240589891       -1.4485014675
 H         -0.0780045581        1.5891233616       -1.4490918339
  57
        -93.03884724
 C         -6.6740688816       -3.8237188882       -0.2642600703
 O         -5.2928953574       -4.0907086266       -0.2970623123
 C         -4.4206970661       -3.0563594270       -0.2216604939
 C         -3.0615179838       -3.4203381314       -0.2754383172
 C         -2.0576194721       -2.4813467547       -0.1975153012
 C         -2.4174253990       -1.1458840175       -0.0522203519
 C         -3.7839311227       -0.7622152425       -0.0418466416
 C         -4.7881994971       -1.7174728698       -0.1165586357
 C         -3.8029430906        0.6701641881        0.0354374944
 C         -4.8320884703        1.6002551416        0.0843676310
 C         -4.5004723783        2.9478412764        0.1963479324
 O         -5.3993653914        3.9603175637        0.2470956383
 C         -6.7721960943        3.6603466272        0.1708087161
 C         -3.1525010661        3.3452799466        0.2846638310
 C         -2.1240509843        2.4315617333        0.2314469333
 C         -2.4471001142        1.0877963187        0.0768986599
 N         -1.6261006405       -0.0187658076        0.0204704934
 C         -0.2416361682        0.0004226617        0.0244642353
 C          0.4917551683       -0.9127051199        0.8092848592
 C          1.8553272882       -0.8923250053        0.8106140100
 C          2.5898481829        0.0354095990        0.0203700974
 C          4.0107013784        0.0501728536        0.0122364007
 C          4.7689495551        1.2530059711       -0.2048720296
 C          4.1712470014        2.5188824684       -0.2824266726
 N          3.7470452063        3.5897492815       -0.3141704169
 C          6.1616117706        1.2099574220       -0.2172552023
 C          6.9872558762        2.4416232672       -0.4097191550
 N          6.8290536088        0.0762877213       -0.0317205233
 C          6.1893264404       -1.0669667103        0.1800118238
 C          7.0377613773       -2.2853329949        0.3592686545
 C          4.7971770455       -1.1363801787        0.2141376012
 C          4.2331362151       -2.4144528870        0.3275861878
 N          3.8411187289       -3.4974965173        0.3832758754
 C          1.8302706152        0.9461576994       -0.7659781284
 C          0.4669194319        0.9329727337       -0.7606732602
 H         -6.9828521504       -3.2026050678       -1.1110150457
 H         -7.1633500911       -4.7937531639       -0.3330112753
 H         -6.9664519949       -3.3368711535        0.6714554848
 H         -2.8299398059       -4.4666483570       -0.3875896943
 H         -1.0241301325       -2.7807436986       -0.2661522189
 H         -5.8212636440       -1.4103825064       -0.0998760852
 H         -5.8565502798        1.2678024692        0.0426625336
 H         -7.0220655261        3.1604824120       -0.7705094426
 H         -7.2860415536        4.6190948676        0.2163750365
 H         -7.0941681835        3.0376100118        1.0118469422
 H         -2.9496826010        4.3968283268        0.4024768699
 H         -1.1002158209        2.7562804161        0.3254130362
 H         -0.0404975454       -1.5839448455        1.4667459572
 H          2.3879006082       -1.5573088372        1.4713311022
 H          6.5463065400        3.0964502171       -1.1559442831
 H          7.9942094315        2.1603422289       -0.7060329010
 H          7.0455129096        2.9953554085        0.5260145145
 H          6.7884775571       -2.7943382034        1.2889215476
 H          8.0850416972       -1.9971843180        0.3697756011
 H          6.8667884634       -2.9874112923       -0.4562480728
 H          2.3439436398        1.6235083806       -1.4290773731
 H         -0.0836799108        1.5910101178       -1.4163439830
  57
        -93.03864987
 C         -6.6789907343       -3.8239053910       -0.2234388288
 O         -5.2983429021       -4.0903656868       -0.2783166476
 C         -4.4250963420       -3.0561851846       -0.2159980641
 C         -3.0670598466       -3.4212254274       -0.2890069518
 C         -2.0616611643       -2.4830428239       -0.2249290567
 C         -2.4190863590       -1.1474203157       -0.0749885748
 C         -3.7847934753       -0.7623313546       -0.0461342914
 C         -4.7905279552       -1.7170859554       -0.1062957736
 C         -3.8005670600        0.6703313521        0.0319559894
 C         -4.8273456912        1.6018652027        0.1000363315
 C         -4.4919316439        2.9487874760        0.2097310848
 O         -5.3882454623        3.9623963951        0.2822224286
 C         -6.7629284485        3.6638382781        0.2437534590
 C         -3.1420673539        3.3446146104        0.2722764520
 C         -2.1159895037        2.4295499750        0.2008270751
 C         -2.4436973025        1.0860835405        0.0535259950
 N         -1.6253522103       -0.0217836714       -0.0122750947
 C         -0.2404646225       -0.0075579871       -0.0099045606
 C          0.4876245600       -0.9174826162        0.7832012128
 C          1.8512057473       -0.8986449870        0.7917649284
 C          2.5906215966        0.0224668474       -0.0011846094
 C          4.0117903107        0.0424625417        0.0046516891
 C          4.7639488991        1.2501686302       -0.2027856252
 C          4.1649948708        2.5123260450       -0.3079498396
 N          3.7452657843        3.5841082537       -0.3646362208
 C          6.1581129783        1.2170954695       -0.1799605295
 C          6.9723576666        2.4555588936       -0.3793073922
 N          6.8270253692        0.0927001314        0.0307646716
 C          6.1923549869       -1.0607688585        0.2240224376
 C          7.0677190618       -2.2567421817        0.4210152998
 C          4.8024284912       -1.1409332260        0.2191836747
 C          4.2238628915       -2.4162559134        0.3003696515
 N          3.8046181107       -3.4887769485        0.3367623328
 C          1.8361859414        0.9280141401       -0.7982226417
 C          0.4725348446        0.9177889137       -0.7985869019
 H         -7.0015161910       -3.2021064990       -1.0645687455
 H         -7.1688951886       -4.7941569166       -0.2853928982
 H         -6.9566053683       -3.3381584065        0.7174451714
 H         -2.8379657965       -4.4677358043       -0.4041100183
 H         -1.0291020318       -2.7823812701       -0.3069732413
 H         -5.8232139865       -1.4098236222       -0.0750922695
 H         -5.8529289209        1.2711210850        0.0750072157
 H         -7.2746158894        4.6220490422        0.3161353068
 H         -7.0598510049        3.0313401752        1.0863426974
 H         -7.0411903330        3.1754447593       -0.6955046595
 H         -2.9359136873        4.3960060570        0.3862851363
 H         -1.0901142662        2.7527329093        0.2759475235
 H         -0.0490479580       -1.5834846375        1.4423869214
 H          2.3789245851       -1.5576929364        1.4621816170
 H          8.0280970590        2.2075058929       -0.3156296096
 H          6.7267918554        3.1984240086        0.3785618483
 H          6.7615441464        2.8966098210       -1.3527928356
 H          7.5387389865       -2.5211833629       -0.5256420120
 H          6.5016617733       -3.1105075045        0.7822392271
 H          7.8600653953       -2.0121734998        1.1254952275
 H          2.3542169178        1.5990969537       -1.4643012719
 H         -0.0740327678        1.5721389559       -1.4612696560
  57
        -93.03820752
 C         -6.6039532160       -3.8701615996       -0.3185018854
 O         -5.2176784151       -4.1129813567       -0.3179704228
 C         -4.3648286091       -3.0642416229       -0.2234168376
 C         -2.9993863945       -3.4072744843       -0.2514180547
 C         -2.0122653221       -2.4525112717       -0.1592599233
 C         -2.3963845473       -1.1224616676       -0.0257685557
 C         -3.7682932364       -0.7600503334       -0.0344665591
 C         -4.7557439788       -1.7316569015       -0.1241731901
 C         -3.8094857326        0.6725779650        0.0370599846
 C         -4.8526259737        1.5875008561        0.0754165233
 C         -4.5418739454        2.9404607556        0.1831144894
 O         -5.4559060346        3.9397346312        0.2273040177
 C         -6.8242301287        3.6189474563        0.1526456651
 C         -3.2003815333        3.3588834518        0.2735564100
 C         -2.1581424970        2.4604815490        0.2328817384
 C         -2.4605257698        1.1107871446        0.0885845127
 N         -1.6230121408        0.0164705685        0.0488513345
 C         -0.2379282617        0.0501281964        0.0649074363
 C          0.4934809755       -0.8443402729        0.8713315458
 C          1.8571934654       -0.8279349398        0.8688051175
 C          2.5916412888        0.0729095311        0.0491150143
 C          4.0134685976        0.0595510237        0.0194025932
 C          4.7939106700        1.2470150581       -0.2066130049
 C          4.2045528290        2.5175188579       -0.2760587744
 N          3.7737826339        3.5858623570       -0.3057282966
 C          6.1844850152        1.1707348577       -0.2325296692
 C          7.0557037177        2.3647381345       -0.4584092030
 N          6.8217306149        0.0196112326       -0.0496633649
 C          6.1621519914       -1.1131439618        0.1634175705
 C          7.0080026926       -2.3341861950        0.3356623695
 C          4.7701488917       -1.1499790838        0.2062190947
 C          4.1520877336       -2.4051190140        0.2996447625
 N          3.6945890094       -3.4616529744        0.3439905259
 C          1.8344150029        0.9776219572       -0.7446174319
 C          0.4702637538        0.9698655602       -0.7341583943
 H         -6.9019602594       -3.2508127045       -1.1703212461
 H         -7.0739781286       -4.8484132488       -0.4037147478
 H         -6.9279269238       -3.3930194147        0.6116187709
 H         -2.7504147969       -4.4501962704       -0.3570085960
 H         -0.9727398600       -2.7343298082       -0.2088339838
 H         -5.7940184062       -1.4422721562       -0.1238802879
 H         -5.8718792941        1.2396784079        0.0287956635
 H         -7.3527653121        4.5695082305        0.2012415056
 H         -7.1353643055        2.9894404304        0.9925390176
 H         -7.0678379942        3.1175053383       -0.7895034293
 H         -3.0145318650        4.4144907516        0.3837924780
 H         -1.1394277563        2.8006295188        0.3281829963
 H         -0.0400635674       -1.4981455629        1.5451936431
 H          2.3899499261       -1.4739719673        1.5480940021
 H          7.7666766627        2.4554646950        0.3611247131
 H          6.4707053129        3.2765160017       -0.5354804827
 H          7.6284411678        2.2245020424       -1.3745551497
 H          7.7397940283       -2.1578882265        1.1225362147
 H          7.5570989865       -2.5276878629       -0.5853107138
 H          6.4067789567       -3.2042630162        0.5831190954
 H          2.3483504135        1.6430455560       -1.4195588620
 H         -0.0803440226        1.6209398682       -1.3966872644
  57
        -93.03780929
 C         -6.6799263979       -3.7866270139        1.2698087305
 O         -5.2948831563       -4.0234455924        1.3574247543
 C         -4.4360430531       -3.0315394593        1.0234175463
 C         -3.0716463056       -3.3708515226        1.1173937934
 C         -2.0790503875       -2.4663197754        0.8162353019
 C         -2.4542100839       -1.1865996366        0.4201394932
 C         -3.8259943491       -0.8446589359        0.2874225520
 C         -4.8191028755       -1.7628180668        0.5963682791
 C         -3.8630881763        0.5032250833       -0.2031955100
 C         -4.8887622310        1.3770030000       -0.5098914260
 C         -4.5718103653        2.6707702582       -0.9372618167
 O         -5.6356678089        3.4609890107       -1.2219870361
 C         -5.4152728863        4.7815007565       -1.6580398825
 C         -3.2344491331        3.0783491078       -1.0303886796
 C         -2.2001089597        2.2091468748       -0.7298029599
 C         -2.5089738009        0.9150732381       -0.3418029478
 N         -1.6755769205       -0.1174116206        0.0356349149
 C         -0.2888872817       -0.0801855723        0.0223788911
 C          0.4581389363       -0.5642841978        1.1143638447
 C          1.8211987442       -0.5008134535        1.1078604712
 C          2.5406866569        0.0174265126       -0.0043716970
 C          3.9619944394        0.0755644468       -0.0137955582
 C          4.7367260417        0.2436828001        1.1860920775
 C          4.1637888762        0.4886680696        2.4421904022
 N          3.7744395073        0.7319633679        3.4986363579
 C          6.1280660222        0.3007812651        1.1211017273
 C          6.9616856846        0.4984701763        2.3468762593
 N          6.7806623112        0.1988984826       -0.0302539028
 C          6.1259977601        0.0401868671       -1.1739639338
 C          6.9593564165       -0.0809479550       -2.4099083294
 C          4.7342905619       -0.0246365222       -1.2228804631
 C          4.1708181899       -0.3141400340       -2.4736880222
 N          3.7918738866       -0.5829521834       -3.5280236277
 C          1.7673558981        0.4772423544       -1.1058547822
 C          0.4035330526        0.4470366151       -1.0858151375
 H         -6.9814474135       -3.5505064398        0.2446152076
 H         -7.1573401374       -4.7142194550        1.5808812839
 H         -6.9913807744       -2.9774171857        1.9374782197
 H         -2.8287080190       -4.3738569097        1.4273444072
 H         -1.0415665460       -2.7546037755        0.8700815955
 H         -5.8545843612       -1.4829319565        0.4933848387
 H         -5.9252390786        1.0952654545       -0.4228590829
 H         -4.8999571215        5.3747357748       -0.8963711550
 H         -6.4044566901        5.2015522130       -1.8325997285
 H         -4.8419574829        4.8060320284       -2.5897855643
 H         -2.9907279178        4.0841254891       -1.3302530529
 H         -1.1778403995        2.5486357858       -0.7829190199
 H         -0.0618718794       -0.9399050490        1.9828187632
 H          2.3655657914       -0.8800309157        1.9574593914
 H          6.7513433601       -0.2765226483        3.0826631468
 H          6.7353102266        1.4595527418        2.8077075918
 H          8.0135111064        0.4679707101        2.0763074390
 H          6.8026716261       -1.0519716925       -2.8793650981
 H          8.0085487992        0.0284995915       -2.1491683383
 H          6.6821742885        0.6834515189       -3.1350695668
 H          2.2681909306        0.8878725887       -1.9675074599
 H         -0.1576579298        0.7820037507       -1.9453881798
  57
        -93.03761653
 C         -5.2460743086       -5.1644208181        1.3918182806
 O         -5.5237890081       -3.8357444282        1.0177483834
 C         -4.4974211463       -2.9791706307        0.7989103904
 C         -3.1426768998       -3.3152495495        0.9333310503
 C         -2.1477978118       -2.3872087652        0.6833895120
 C         -2.5129749921       -1.1102672826        0.2844109572
 C         -3.8847764173       -0.7466398034        0.1866345096
 C         -4.8709946078       -1.6814881558        0.4339545956
 C         -3.9094585059        0.6454168129       -0.1628388166
 C         -4.9286429703        1.5455743771       -0.4047950061
 C         -4.6021232285        2.8563395179       -0.7680729883
 O         -5.6589739119        3.6765768007       -0.9811037078
 C         -5.4302012197        5.0163927966       -1.3483187738
 C         -3.2604925254        3.2400805515       -0.9061901906
 C         -2.2327535097        2.3466426278       -0.6627723843
 C         -2.5513907557        1.0565843106       -0.2661338326
 N         -1.7259239001       -0.0131803689        0.0064886397
 C         -0.3382892814        0.0067547014       -0.0008193874
 C          0.3719870312        1.0529740574        0.6198978880
 C          1.7366210720        1.0596695441        0.6285734778
 C          2.4935052620        0.0397104078       -0.0113752318
 C          3.9160285149        0.0537282677       -0.0153866588
 C          4.6884843101        0.6307761573        1.0516054989
 C          4.1195432934        1.1218124160        2.2352361461
 N          3.7367377484        1.5129309361        3.2491911775
 C          6.0815134059        0.6077674375        1.0015767791
 C          6.9145930847        1.1758839659        2.1062311487
 N          6.7383637540        0.0668097404       -0.0173785106
 C          6.0854366733       -0.4786312434       -1.0363042951
 C          6.9219665688       -1.0387299221       -2.1424428687
 C          4.6926500849       -0.5126678092       -1.0853189608
 C          4.1257514319       -1.0023223562       -2.2704558088
 N          3.7416681016       -1.3903191584       -3.2851234436
 C          1.7559178326       -0.9969997195       -0.6469233522
 C          0.3918289876       -1.0218554269       -0.6282593402
 H         -4.7159213971       -5.2096824284        2.3481112572
 H         -6.2157500420       -5.6485360357        1.4952645018
 H         -4.6623420646       -5.6836614402        0.6255987716
 H         -2.8557386628       -4.3060727186        1.2447195284
 H         -1.1122014655       -2.6572265060        0.8166925571
 H         -5.9178880317       -1.4378456766        0.3604488916
 H         -5.9661128191        1.2653541511       -0.3280363518
 H         -6.4169884334        5.4656671680       -1.4472187521
 H         -4.9040466302        5.0863042270       -2.3053253903
 H         -4.8640608633        5.5520750693       -0.5802021488
 H         -3.0097134710        4.2414033171       -1.2152605751
 H         -1.2077679092        2.6532678249       -0.7988306345
 H         -0.1758699561        1.8270373626        1.1362247863
 H          2.2515836607        1.8751601445        1.1099039450
 H          6.6367027619        2.2097517778        2.3054383872
 H          7.9637141707        1.1261602729        1.8281018009
 H          6.7592461038        0.6103318833        3.0247313135
 H          6.7780268054       -0.4589693889       -3.0539409545
 H          6.6370995466       -2.0672239490       -2.3582942773
 H          7.9695378646       -1.0007303899       -1.8567039964
 H          2.2860428619       -1.8005400600       -1.1318457810
 H         -0.1418381264       -1.8083710558       -1.1406122065
  57
        -93.03749984
 C         -6.6926817247       -3.5635119738       -1.4016409572
 O         -5.3124852522       -3.8032167540       -1.5363220070
 C         -4.4371426865       -2.8419684568       -1.1550895513
 C         -3.0800975384       -3.1659040611       -1.3449215492
 C         -2.0730659220       -2.2949191595       -0.9946241639
 C         -2.4266086502       -1.0735088261       -0.4318509729
 C         -3.7917411809       -0.7181175450       -0.2755978234
 C         -4.7994056494       -1.6052961407       -0.6275636304
 C         -3.8053004473        0.6179291292        0.2471205132
 C         -4.8306898376        1.4793832714        0.6115961034
 C         -4.4934566990        2.7251727479        1.1342971666
 O         -5.3880160299        3.6639154666        1.5267081831
 C         -6.7633310811        3.3906576916        1.4058329704
 C         -3.1428629699        3.0835047414        1.3068258734
 C         -2.1184811163        2.2377463345        0.9450455713
 C         -2.4477458914        1.0072572002        0.3875342325
 N         -1.6307576104       -0.0234158599       -0.0263400799
 C         -0.2444948403       -0.0088834484       -0.0255857307
 C          0.4871592389       -1.1129474147        0.4565529497
 C          1.8508133383       -1.0876594975        0.4816115381
 C          2.5874097888        0.0272051830       -0.0070575539
 C          4.0091179556        0.0492673085        0.0095680047
 C          4.7837973120        0.7715062627       -0.9638917871
 C          4.2184047465        1.3965724408       -2.0844187905
 N          3.8371441957        1.8995037026       -3.0484159151
 C          6.1761190306        0.7670618828       -0.8968455742
 C          7.0114168981        1.4927725319       -1.9028982971
 N          6.8290743267        0.1104218767        0.0541210333
 C          6.1753688277       -0.5774570904        0.9821313183
 C          7.0094340844       -1.2692911179        2.0128242626
 C          4.7830076955       -0.6443726780        1.0041330255
 C          4.2121268733       -1.3030133175        2.1023844036
 N          3.8266341576       -1.8314569109        3.0509256098
 C          1.8292056735        1.1209382441       -0.5104297780
 C          0.4651649715        1.1114846107       -0.5029339644
 H         -6.9709398219       -3.3974719756       -0.3560782900
 H         -7.0117931670       -2.7077559668       -2.0049990685
 H         -7.1848956828       -4.4635579097       -1.7661005089
 H         -2.8536738457       -4.1234437729       -1.7841284579
 H         -1.0413308243       -2.5526068800       -1.1721054151
 H         -5.8313177929       -1.3232580221       -0.4957478859
 H         -5.8566497351        1.1708886759        0.4932662359
 H         -7.0470808476        3.2138541803        0.3636003781
 H         -7.2735253375        4.2800851860        1.7715392163
 H         -7.0561055047        2.5299046569        2.0153806246
 H         -2.9350685419        4.0469224026        1.7423638445
 H         -1.0916749493        2.5218079510        1.1102191328
 H         -0.0451689478       -1.9622066592        0.8578631192
 H          2.3821559538       -1.9474115065        0.8562104543
 H          8.0626847332        1.3481839295       -1.6701494412
 H          6.7811875748        2.5574440441       -1.8927665581
 H          6.8068143140        1.1215856803       -2.9063564233
 H          6.7431559351       -0.9263334643        3.0118357674
 H          8.0593257326       -1.0620513850        1.8251596705
 H          6.8412915201       -2.3451748330        1.9785047183
 H          2.3433056586        1.9930495221       -0.8805747235
 H         -0.0834638035        1.9457240379       -0.9137347082
