  59
        -97.94540326
 C          7.5518532380       -0.4365641946        1.8266293919
 C          6.9326432021        0.8052174567        1.9309073301
 C          5.6815118474        1.0372281708        1.3751692482
 C          5.0681254941       -0.0011644572        0.6948782244
 C          5.6735187318       -1.2839417890        0.6269847880
 C          6.9281898220       -1.4933666761        1.1889068156
 C          4.7423433820       -2.1426740349       -0.0350807176
 C          4.7167503600       -3.4853717185       -0.4110056366
 C          3.5734120331       -3.9403953818       -1.0502764485
 C          2.5188943245       -3.0681616040       -1.2953318522
 N          2.5199188987       -1.7816002440       -0.9483561824
 C          3.6048064353       -1.3513426894       -0.3345554604
 N          3.8220230668       -0.0518597858        0.0848493883
 C          2.9578798033        1.0102879015       -0.1511570151
 C          3.4700305828        2.2819943000       -0.4722243489
 C          2.6035954680        3.3378565694       -0.7209309567
 C          1.2437669979        3.1199549903       -0.6510008498
 S         -0.0099131785        4.3044083152       -0.9372784022
 C         -1.2614618345        3.1097753624       -0.6848411710
 C         -2.6222220075        3.3254558972       -0.7553117708
 C         -3.4863747262        2.2618322326       -0.5360634039
 C         -2.9722691848        0.9861083370       -0.2491724123
 N         -3.8451415484       -0.0763662733       -0.0473695442
 C         -3.6265996371       -1.4033016442       -0.3952685707
 C         -2.6266769024       -1.9638039751       -1.1727269756
 C         -2.6632701205       -3.3343359063       -1.3929933776
 C         -3.6812966817       -4.1252715709       -0.8698533967
 C         -4.7106372262       -3.5678853939       -0.1330166464
 C         -4.6928861366       -2.1974042160        0.1021285350
 C         -5.5961797414       -1.3055091691        0.7599670919
 C         -6.8016653387       -1.4353922403        1.4480392101
 C         -7.3707621662       -0.2752498432        1.9512222079
 C         -6.7384662308        0.9487723204        1.7621237683
 N         -5.5899862452        1.0986179088        1.1049415367
 C         -5.0488509878       -0.0037128922        0.6264736752
 C         -1.5991612897        0.7769157192       -0.1419449033
 C         -0.7184297129        1.8356481704       -0.3685851727
 C          0.7035224253        1.8405525986       -0.3466948550
 C          1.5855639786        0.7889326922       -0.0963227476
 H          8.5272358703       -0.5789813836        2.2674590946
 H          7.4285504663        1.6036344738        2.4612010795
 H          5.1999879166        1.9944610460        1.4981000208
 H          7.3958905652       -2.4643826768        1.1335396026
 H          5.5517622277       -4.1394683107       -0.2116264876
 H          3.4941335365       -4.9702544839       -1.3624780038
 H          1.6203211237       -3.4042904174       -1.7926978342
 H          4.5317341505        2.4217166632       -0.5851179628
 H          2.9906342368        4.3094008336       -0.9859284979
 H         -3.0104012133        4.3030943160       -0.9937002114
 H         -4.5511934343        2.4024783505       -0.5896419940
 H         -1.8500449822       -1.3624802954       -1.6184155470
 H         -1.8886149651       -3.7909471826       -1.9896867793
 H         -3.6739112277       -5.1887892765       -1.0572091128
 H         -5.5157739276       -4.1771133363        0.2481710645
 H         -7.2680133153       -2.3992275252        1.5844779957
 H         -8.3055226745       -0.3124354601        2.4888968111
 H         -7.1664169834        1.8636494588        2.1460759670
 H         -1.2116829402       -0.1826724924        0.1586975535
 H          1.2104327422       -0.1915438457        0.1413021674
