  80
       -130.86109461
 C         -3.9409134697        8.9622514135       -0.6705431995
 O         -2.8456614209        8.4210227247        0.0288986383
 C         -2.6152834466        7.0814186419       -0.0565230858
 C         -3.3853451385        6.1808486066       -0.7840710178
 C         -3.0537367243        4.8376579950       -0.7929141641
 C         -1.9528361266        4.3565527298       -0.0935274368
 C         -1.6074881527        2.9282403526       -0.1183104631
 C         -0.2689881892        2.5312455794       -0.2285078562
 C          0.1043771083        1.2021930296       -0.2639476233
 C         -0.8933491930        0.2445689499       -0.1844596884
 C         -2.2463918326        0.6223822810       -0.0639441456
 C         -2.6020788025        1.9608971031       -0.0352768758
 C         -3.0114694171       -0.5951411421        0.0027096610
 C         -4.3713128313       -0.8447867716        0.0762506952
 C         -4.8239303477       -2.1592597565        0.0649178410
 C         -6.2597663628       -2.4588129979        0.1478801793
 C         -7.1952396350       -1.6763092804       -0.5200220843
 C         -8.5488688734       -1.9536102576       -0.4545185021
 C         -9.0020061325       -3.0324469762        0.2968243837
 O        -10.3058154437       -3.3994825791        0.4348803855
 C        -11.2924044339       -2.6433015431       -0.2258245632
 C         -8.0706476255       -3.8211095183        0.9751209120
 C         -6.7254755353       -3.5395468681        0.8977329431
 C         -3.8953441087       -3.2002881335       -0.0537408507
 C         -2.5351631194       -2.9706533755       -0.1280009457
 C         -2.0859138517       -1.6598399064       -0.0643634781
 N         -0.7984402519       -1.1436306745       -0.1497000260
 C          0.3839815824       -1.8539463704       -0.1302030405
 C          0.5215754046       -3.0328830138        0.6182404539
 C          1.7425477586       -3.6661146996        0.6218591918
 C          2.8118684391       -3.1222912009       -0.0985954111
 C          4.1211204581       -3.8125685523       -0.1077248890
 O          4.1958381549       -5.0257652803       -0.0187267581
 C          5.3259573865       -2.9592311566       -0.2338633617
 C          6.4748917321       -3.5154373524       -0.8134619225
 C          7.6317080755       -2.7810059818       -0.9503739349
 C          7.6441461510       -1.4732076888       -0.4864286646
 S          8.9967736478       -0.3751388066       -0.5568331477
 C          8.0556675301        0.8783206869        0.2274721614
 C          8.4988481871        2.1546065105        0.5314895502
 C          7.6207986678        3.0247452481        1.1488937970
 C          6.3227690525        2.6277562183        1.4561907428
 C          5.8832107662        1.3554658211        1.1530795605
 C          6.7502088501        0.4599623373        0.5333461373
 C          6.5110495148       -0.8997542947        0.1212864053
 C          5.3531161371       -1.6551836387        0.2459640402
 C          2.5588688114       -1.9570271130       -0.8220257051
 N          1.3955259720       -1.3444625935       -0.8322212847
 C         -1.1853205241        5.2692864165        0.6306398071
 C         -1.5111811565        6.6064521899        0.6540806289
 H         -4.8884700367        8.5327067826       -0.3292689011
 H         -3.8409330789        8.8127913876       -1.7506569279
 H         -3.9305886032       10.0288215267       -0.4524958021
 H         -4.2420892977        6.5112153162       -1.3504096530
 H         -3.6527637233        4.1542176182       -1.3769534464
 H          0.4930746556        3.2916538562       -0.3122225755
 H          1.1379876255        0.9161543740       -0.3675511723
 H         -3.6369947466        2.2469677341        0.0743524832
 H         -5.0694134514       -0.0254237317        0.1520624613
 H         -6.8608617670       -0.8459636739       -1.1245349333
 H         -9.2375473946       -1.3242499753       -0.9962158606
 H        -11.3030685045       -1.6052867217        0.1220534045
 H        -12.2409037149       -3.1158398189        0.0234771867
 H        -11.1533064321       -2.6625472727       -1.3115426368
 H         -8.4331044895       -4.6519897051        1.5597568906
 H         -6.0238570484       -4.1526922422        1.4435988852
 H         -4.2569598387       -4.2155149645       -0.1185382956
 H         -1.8572652706       -3.7985324563       -0.2656009738
 H         -0.2963843272       -3.4018857657        1.2142308285
 H          1.9032660465       -4.5672225308        1.1952744385
 H          6.4281914299       -4.5372309077       -1.1577439902
 H          8.5124062771       -3.2074510605       -1.4043419661
 H          9.5059120750        2.4551742117        0.2882197479
 H          7.9464304961        4.0241848181        1.3939390829
 H          5.6530409838        3.3248985753        1.9365346417
 H          4.8752319852        1.0502484979        1.3909883204
 H          4.4911250330       -1.2322625535        0.7384157401
 H          3.3216434176       -1.5066290966       -1.4441359357
 H         -0.3367208751        4.9195244026        1.1995386553
 H         -0.9255082973        7.3133724130        1.2205103294
