80
 energy: -130.917109693566 gnorm: 0.000027706264 xtb: 6.7.1 (edcfbbe)
C           -7.76552865020435        7.15622439916757        0.82398920016066
O           -7.42215108666187        5.96296605796010        1.49397111034388
C           -6.34821169058548        5.24756894920102        1.04793452046368
C           -5.54830012321294        5.59570507618954       -0.03462790724213
C           -4.48092016153605        4.79070978077987       -0.39232460653223
C           -4.18539525712010        3.62372423451522        0.30399636847299
C           -3.05293451071694        2.77127609647564       -0.08894275081582
C           -1.83384089896864        3.34728276456744       -0.46886435273564
C           -0.74542165260382        2.58578703403232       -0.84863459186536
C           -0.88630401816966        1.20763989049733       -0.85568588658383
C           -2.10181013244777        0.60707287264157       -0.46845579661940
C           -3.18110339897364        1.38683695875346       -0.08540855654103
C           -1.91447271954838       -0.81681990296780       -0.57748511443797
C           -2.76540344674327       -1.89079669145386       -0.37611115915215
C           -2.30825152234361       -3.17941002621229       -0.63061085797572
C           -3.18582937036394       -4.33955506499904       -0.41643856508805
C           -4.02667253558609       -4.40250794732853        0.68982183307631
C           -4.85422315697990       -5.48962992262788        0.90918790045175
C           -4.86121000095482       -6.54926600155572        0.00893525997662
O           -5.63116091440617       -7.67052819279416        0.12070149405285
C           -6.49677861084693       -7.78910863346304        1.22876293264663
C           -4.02548715621491       -6.49315637305729       -1.10827963229223
C           -3.20160963693401       -5.40890596126921       -1.31317320073138
C           -1.00628618847195       -3.35793539738077       -1.11286931515088
C           -0.14128506848652       -2.29881228905644       -1.31311989373209
C           -0.58596257782936       -1.01985050294919       -1.01147296584514
N            0.04502355593598        0.21382331983224       -1.15144407984939
C            1.36466541503195        0.43401335960683       -1.48625871854647
C            2.38106801665932       -0.44650951600240       -1.08385298378103
C            3.67574323979260       -0.18663810432979       -1.47420755224315
C            3.94810394785472        0.95262217795880       -2.24000585861912
C            5.29309298510837        1.29360896636349       -2.74935557538150
O            5.43199193947873        1.88476397787485       -3.81176497110377
C            6.45710827694735        0.89094844024578       -1.92915795772332
C            7.66482929456794        0.60994508159824       -2.58474770232627
C            8.78960041007923        0.24286292676047       -1.87982071798250
C            8.71039890212278        0.17255697973607       -0.49563628469948
S           10.01049925852718       -0.26407995445033        0.58143379206307
C            8.96512432257912       -0.04781898656198        1.97430913005412
C            9.32868599288173       -0.23695900866986        3.29743652670533
C            8.37602285984035       -0.02610869104940        4.27645574049163
C            7.08326479143788        0.36498135371137        3.93946677652463
C            6.72325681223551        0.55324553790660        2.62049073504059
C            7.66602139296617        0.34848142889725        1.61624079103505
C            7.51660080416931        0.47548842945921        0.18792348778220
C            6.39094385868963        0.83497682462114       -0.54126724760161
C            2.86678691639510        1.77833531507333       -2.55332906069723
N            1.62789106372867        1.53776071579287       -2.18771331288431
C           -4.99765451872977        3.28247082349387        1.38637997238800
C           -6.05779006378964        4.07988338610059        1.75615789210160
H           -8.63837899992379        7.54331443285948        1.34742417179963
H           -8.02407229762273        6.96671337935837       -0.22236275345959
H           -6.95560742848348        7.89049482853220        0.87530185178063
H           -5.74635678420776        6.48752356636391       -0.60825812604820
H           -3.88060140843301        5.06851724306115       -1.24629759833357
H           -1.73656741066581        4.42246977080908       -0.44723593838922
H            0.18286713321732        3.04856925563722       -1.14112902262344
H           -4.11564106235336        0.92419126392785        0.19240572724849
H           -3.78298265685068       -1.72398437423122       -0.05814342940072
H           -4.02238859465102       -3.59646443373095        1.40891267780019
H           -5.48399750777754       -5.49995500123880        1.78485989669230
H           -7.24364240797168       -6.98944723413944        1.23973969292942
H           -5.94087608789482       -7.78596694643085        2.17137931989008
H           -6.99635400759169       -8.74886030652173        1.10676502132181
H           -4.04477620168177       -7.31784296681885       -1.80429175628108
H           -2.57719062405609       -5.37882929307792       -2.19369510356075
H           -0.66050377574241       -4.35845577269686       -1.32485450560035
H            0.84146583959032       -2.48069241278025       -1.71888417821802
H            2.15449946767595       -1.29309917310725       -0.45733363023619
H            4.47145334359644       -0.86380080125792       -1.20082393736107
H            7.68963316863550        0.68082014154822       -3.66195811438611
H            9.71441832396615        0.01712173654036       -2.38724969185020
H           10.33253471993642       -0.54111504347095        3.55006914573519
H            8.63888678364078       -0.16804766177191        5.31380115951919
H            6.35498047904561        0.52305680517129        4.72066428394589
H            5.71997418127034        0.85645523007300        2.36237238747573
H            5.48050962705227        1.09889269106731       -0.02534262115620
H            3.02734222825698        2.68484946979378       -3.12316386710911
H           -4.78073114902138        2.39161807826100        1.95697198256710
H           -6.68262187855329        3.82278853667312        2.59782966825488
