80
 energy: -130.839642325378 gnorm: 0.000078620526 xtb: 6.7.1 (edcfbbe)
C           -4.07008894334326        8.98380737635355       -0.72453943218397
O           -2.94219582462190        8.46020460185084       -0.05402519169534
C           -2.70772036682037        7.12670599694029       -0.10245963122322
C           -3.49557122982376        6.19549321410150       -0.77817915784457
C           -3.15831699301273        4.85716561940948       -0.75231232452675
C           -2.02735329823684        4.39966476990844       -0.07223877722108
C           -1.67589275952775        2.98137060832313       -0.06392534032396
C           -0.32744113259176        2.58186309357160       -0.06872189897637
C            0.04600219807564        1.25549197283973       -0.06046718054485
C           -0.95733923298104        0.29220103974474       -0.04830213583852
C           -2.32368609989951        0.67176980658518       -0.02818767643248
C           -2.67862871449822        2.00501781100145       -0.04407040707775
C           -3.08344405810489       -0.55304932971150       -0.01146454086625
C           -4.43648260889764       -0.82231389805451        0.00530696603260
C           -4.87255992793246       -2.15139625937543       -0.01414273849185
C           -6.29880464776802       -2.46398395003667        0.04161853578263
C           -7.24489941553737       -1.64189658707208       -0.57407035147624
C           -8.59462707242546       -1.92692785507501       -0.52175246815693
C           -9.04398240473455       -3.05177276797670        0.16886838224127
O          -10.34077930490897       -3.42384557866222        0.29715317256215
C          -11.34598724312573       -2.62154562883322       -0.28733902308482
C           -8.10461562324601       -3.88237537004600        0.79222837433188
C           -6.76227135506987       -3.59667628887061        0.72308329942531
C           -3.92007127414221       -3.18250513429628       -0.09710758759370
C           -2.56484701007141       -2.93222413972230       -0.12113127778494
C           -2.13587321345535       -1.61025362778173       -0.03786911307925
N           -0.86200976507828       -1.08308946139951       -0.03184711421211
C            0.33003532399080       -1.79592130989982        0.05555828017512
C            0.44509436666266       -2.95443369646255        0.84683239126075
C            1.65957674016268       -3.58100033768281        0.91842745116695
C            2.79000793824902       -3.04662924280971        0.24376406799943
C            4.05932247065779       -3.72556085251260        0.29715930446661
O            4.11962172226756       -4.94999545289608        0.61580692848626
C            5.28920746444326       -2.98233041078684        0.00632126701539
C            6.39807688406165       -3.68376150606827       -0.50496411396416
C            7.59670688785635       -3.05547829334494       -0.75133380286100
C            7.70882212893818       -1.70157432206671       -0.46434663519921
S            9.13947006676917       -0.71600109298545       -0.67842374652137
C            8.30592420468421        0.68218710944632       -0.02466512870975
C            8.84902422664452        1.94568173759401        0.14163805479678
C            8.05058495162637        2.94044159025031        0.67515017043785
C            6.73247318294749        2.67732268444551        1.03427701239442
C            6.19353262935184        1.41663665872803        0.86761954244584
C            6.97832763983721        0.39768025277326        0.33656727566363
C            6.63101278561904       -0.97958470351672        0.08194428827518
C            5.42942670292889       -1.62788121954194        0.31919294344061
C            2.54589826156406       -1.88606989989193       -0.53058179829139
N            1.38175198631373       -1.30672202813944       -0.61822967441693
C           -1.24161310290153        5.34588901326441        0.59837313220271
C           -1.57621259422512        6.67854941453814        0.59054263074313
H           -4.99912667935051        8.56708137702596       -0.32514515015206
H           -4.01469568042672        8.79779527867638       -1.80102088216629
H           -4.04609372682996       10.05664863404201       -0.54112107398050
H           -4.36828424077132        6.50618513758618       -1.33021614480365
H           -3.76865118891793        4.15754816724887       -1.30283902645442
H            0.44084952034324        3.33824416310240       -0.10705839829660
H            1.08371770422217        0.96477404722830       -0.08192943372577
H           -3.71805060188088        2.29055860127430       -0.01030213603587
H           -5.14875980436785       -0.01466715094107        0.06263724444404
H           -6.91797188226782       -0.77855322921547       -1.13341778105469
H           -9.28920113761265       -1.27225782332724       -1.02355381550798
H          -11.33926545898514       -1.61007386889661        0.12884466437080
H          -12.28773819889763       -3.10868235333478       -0.04024321866841
H          -11.23549226797359       -2.57438846567103       -1.37452480789535
H           -8.46447325889487       -4.74639692983264        1.32919207902994
H           -6.05990192947512       -4.23990814938881        1.23066908510065
H           -4.26137713654166       -4.20275698665788       -0.17903429293324
H           -1.86219156728320       -3.74366212888023       -0.22917844752526
H           -0.39590224630729       -3.30338716831108        1.42530252683974
H            1.79470602288480       -4.47367471335379        1.51118225331282
H            6.27965768389600       -4.73858954208694       -0.70596543021503
H            8.43596538376232       -3.60105088449210       -1.15559401984077
H            9.87230783032665        2.14007259635140       -0.14011005009694
H            8.45653978128635        3.93117282245684        0.81411977117304
H            6.12517955406438        3.46830255327954        1.44842432075730
H            5.17086786138871        1.21322713606326        1.14763703177612
H            4.61599969178555       -1.09067366710810        0.78256674722502
H            3.32674552450732       -1.45630963889000       -1.14380803897938
H           -0.37659708667266        5.02342990012924        1.15715303255821
H           -0.97906485301509        7.40708530718387        1.11675714083094
