80
 energy: -130.840451011228 gnorm: 0.000052962905 xtb: 6.7.1 (edcfbbe)
C           -9.28547043882574        6.05871993377440       -2.18219522097924
O           -9.18092890963412        4.90400354014707       -1.37555378065899
C           -7.95243966835908        4.39523511485483       -1.11003593718588
C           -6.74773917637190        4.91676848129664       -1.57902922974179
C           -5.55341151186775        4.31477441047767       -1.23528196917509
C           -5.51455503348412        3.17463563847773       -0.43114693473862
C           -4.24762789482126        2.53571900727385       -0.07839730541712
C           -3.09565859866907        3.30748092954195        0.14910928314732
C           -1.88661291833693        2.74163333079172        0.49499101543981
C           -1.81872064864768        1.35728573096939        0.62112780911698
C           -2.95974476931208        0.55782601456153        0.34910301825378
C           -4.16456306451543        1.14257098910135        0.01750320198792
C           -2.53535156526808       -0.81358584867947        0.48378388478456
C           -3.18123802951448       -2.02385241016427        0.33633650443163
C           -2.46464979261087       -3.21024276365940        0.53101112278883
C           -3.12418892000981       -4.50436737189251        0.37226671608276
C           -2.44405699967266       -5.59886294165956       -0.16610968166598
C           -3.06033278077056       -6.82296047032981       -0.33095873667711
C           -4.38838782241846       -6.99389910076807        0.05871166605884
O           -5.09141734196551       -8.14708327786776       -0.04800220386184
C           -4.45912398318861       -9.29003743495364       -0.58613540933129
C           -5.07802712219717       -5.90520559997300        0.60705881578168
C           -4.45983274846113       -4.68678325697756        0.75298769476632
C           -1.10522920983413       -3.14416325171573        0.88547620950433
C           -0.44773439665662       -1.94490223370307        1.05283968352602
C           -1.16255392907155       -0.77162174936173        0.83653311602659
N           -0.75084986651105        0.54016886859518        0.92850728633222
C            0.52199989949026        0.94813258609267        1.31301048374302
C            0.72313005312975        2.04465161335561        2.17226981811499
C            2.00367999042520        2.38494317520396        2.51091098690089
C            3.11062067018906        1.65688749982459        1.99210261296919
C            4.45441863185400        2.01523135064296        2.36009673508571
O            4.65481631071316        2.78253173251420        3.34834096211019
C            5.59201498663715        1.46463629472477        1.61568562921688
C            6.80230636822442        1.25662846920351        2.30398250913265
C            7.92094402207776        0.77404923952341        1.66554639568634
C            7.84431893027198        0.50479233795164        0.30563144129648
S            9.14114372235231       -0.10664426597313       -0.69806227248319
C            8.10562886007750       -0.05423137085048       -2.11239062980648
C            8.46979216432586       -0.42286129345463       -3.39709178810501
C            7.52679948899842       -0.32173940568550       -4.40296976733115
C            6.24263716256227        0.13843845384435       -4.12893581030256
C            5.88211413084021        0.50545999862867       -2.84722573301116
C            6.81460328492648        0.41584756484030       -1.81816228286719
C            6.66086403345192        0.73726067059545       -0.41973504324647
C            5.54284868931526        1.22316381987321        0.24097344419139
C            2.77478671184843        0.51361751987636        1.22373097902057
N            1.55454053059385        0.19905525411971        0.89547754728009
C           -6.73198315746091        2.65557716579018        0.02676411141107
C           -7.92512584654249        3.25556053600201       -0.29743356498193
H           -8.88808672675598        5.88068606622029       -3.18563784079238
H           -8.77049498931763        6.90999248778530       -1.72753173052327
H          -10.35087773661696        6.27296876158568       -2.24753344556373
H           -6.73184580907178        5.78794325845724       -2.21448456367563
H           -4.63427757050582        4.72307234999476       -1.62749391555365
H           -3.16221066280339        4.38160451996672        0.07153795841646
H           -1.01771644343378        3.36212775299576        0.64821633326006
H           -5.02325517360866        0.52881867350052       -0.20404933321847
H           -4.21800976778657       -2.05531669240935        0.04093853571719
H           -1.42194584812631       -5.48231225651586       -0.49316028227284
H           -2.50187932919358       -7.63683226572763       -0.76521922044310
H           -4.13901013899357       -9.11901380774957       -1.61800261136212
H           -5.21205341622719      -10.07611436386397       -0.56627184554918
H           -3.60091611408636       -9.59306087211388        0.02048996842184
H           -6.10215592876685       -6.05227787493547        0.91320265479576
H           -5.00505043668730       -3.86907478778083        1.19862212042265
H           -0.56807791565860       -4.06191299523437        1.06758123670898
H            0.59097969218055       -1.90815100387883        1.33950612765740
H           -0.12263013665552        2.56253911056232        2.59713753907009
H            2.20462806330727        3.20726593475467        3.18125432314930
H            6.82748230391370        1.48323656141983        3.36001413827638
H            8.84039778368461        0.60779242133272        2.20618812929882
H            9.46775003514756       -0.78000054439514       -3.59902729019685
H            7.79147783298279       -0.60380462981704       -5.41098657695671
H            5.52017264376644        0.20872675382436       -4.92837815290103
H            4.88488834099241        0.86143131650492       -2.63639627603771
H            4.64790254461380        1.44850941645397       -0.31880426596385
H            3.54112206585592       -0.16860079290696        0.88142325005548
H           -6.73510265429828        1.79034335677997        0.67177534938041
H           -8.86327407584943        2.86635189377772        0.06675565462957
