80
 energy: -130.917851425550 gnorm: 0.000068381205 xtb: 6.7.1 (edcfbbe)
C           -4.00773513349453        8.95964828765205       -0.62249537959213
O           -2.87707387047059        8.42681269450526        0.03203772048680
C           -2.63896109129573        7.08584629573434       -0.06138926720164
C           -3.42380095667580        6.18084658227403       -0.76707673957058
C           -3.08244276578233        4.83999843019889       -0.78773484017580
C           -1.95943651303131        4.36432530083716       -0.11900598019560
C           -1.60977603255039        2.93620869645127       -0.14890040448424
C           -0.27128846749293        2.53967694987146       -0.26562617532497
C            0.10344422609775        1.21029858202349       -0.29715929798283
C           -0.89225486389760        0.25089494823963       -0.21047609656134
C           -2.24524760011689        0.62798045956729       -0.08708446952695
C           -2.60224477127529        1.96626414916040       -0.05829721042584
C           -3.01019549014359       -0.59014025188269       -0.01290008486420
C           -4.37056259990992       -0.83878648452616        0.06266909714526
C           -4.82343806433893       -2.15345070589399        0.06178871976280
C           -6.26077477044838       -2.45038108849134        0.15126365762512
C           -7.19444136364918       -1.68835348537144       -0.54284327533643
C           -8.54893794144449       -1.96201271570060       -0.47055792996221
C           -9.00311053655217       -3.01507783778648        0.31556411522633
O          -10.31056289923677       -3.37673206626506        0.46516136689174
C          -11.29921478619564       -2.64124507370103       -0.22238683791562
C           -8.07422621002415       -3.78329339363428        1.02041445200352
C           -6.72791260680712       -3.50654617068052        0.93477794215708
C           -3.89560398333509       -3.19588427234842       -0.05058115451097
C           -2.53502082176057       -2.96658001221101       -0.13037414555947
C           -2.08523676174772       -1.65533885719384       -0.07601255942901
N           -0.79598541229288       -1.13886474207301       -0.16822123485835
C            0.38572770452106       -1.84928729622970       -0.14560125727187
C            0.52584690185587       -3.02345527179923        0.61140632917442
C            1.74657345300455       -3.65689494229801        0.61627870585329
C            2.81604073991600       -3.11766584699473       -0.10953373636749
C            4.12282649694778       -3.80787702460749       -0.12095620249933
O            4.18923137829155       -5.02780964262660       -0.04234727734159
C            5.33326642665339       -2.96692478954392       -0.23555900302022
C            6.48566053938477       -3.53325852161236       -0.80096262979069
C            7.64965067338367       -2.80786905413087       -0.92417053571714
C            7.66715772672127       -1.49923382805970       -0.46063000287232
S            9.02983367075736       -0.41321831469809       -0.51538575092805
C            8.08768505851389        0.85198669614423        0.25394172531546
C            8.53716528521460        2.12638205117010        0.55796216976708
C            7.65784305961298        3.00578221898884        1.16130016882593
C            6.35355944832079        2.61869744530874        1.45599531983814
C            5.90803472632856        1.34809052126328        1.15286482693260
C            6.77592166044466        0.44381256030301        0.54604949187700
C            6.53091572817293       -0.91540948301637        0.13307473968535
C            5.36569750492521       -1.66163959411588        0.24391776546318
C            2.56135175373808       -1.95700669480883       -0.84065675529581
N            1.39702817572819       -1.34577240814488       -0.85410990809089
C           -1.17785250733057        5.28276865918578        0.58364037322325
C           -1.51093690182200        6.61860049648316        0.61591764498879
H           -4.93455010202101        8.52457863846918       -0.23603812225159
H           -3.95254336905764        8.80565110948107       -1.70458010841204
H           -3.99251216984207       10.02708892133419       -0.40813859575091
H           -4.29924886676510        6.50660614595723       -1.30660707279466
H           -3.69429703280126        4.15490577797364       -1.35612698018173
H            0.49082958030835        3.29915932447948       -0.35574913885324
H            1.13766398462286        0.92637147023835       -0.40202512259898
H           -3.63685698509486        2.25015123125502        0.05764144501519
H           -5.06887454859394       -0.01915418561648        0.13196191078548
H           -6.85849787611054       -0.87736052950951       -1.17228686771749
H           -9.23730357069619       -1.35116721494965       -1.03316089929776
H          -11.30546316111961       -1.59218573423434        0.08891076963285
H          -12.24698700965514       -3.10428592687812        0.04774762038061
H          -11.16089624249991       -2.70241095165040       -1.30625787541369
H           -8.43940656405690       -4.59450500106328        1.63159468006172
H           -6.02735201515706       -4.10354221998633        1.49966860994512
H           -4.25704882730806       -4.21190794103641       -0.10499846027665
H           -1.85778759646576       -3.79581462920091       -0.26340887930206
H           -0.28962956744137       -3.38916911590894        1.21273130224572
H            1.90870517189229       -4.55379855118987        1.19674046511376
H            6.43446892826039       -4.55494203362786       -1.14690979161185
H            8.53148339414169       -3.24275990299194       -1.36800344940995
H            9.54913865311243        2.41881384323366        0.32471851119456
H            7.98792486764285        4.00416534097370        1.40550114269148
H            5.68342036223147        3.32249638169050        1.92630546862777
H            4.89568065936343        1.05108287098028        1.38111409739664
H            4.50076178858492       -1.23275085228967        0.72588612345554
H            3.32261592179997       -1.50944019104631       -1.46686874583665
H           -0.31108317361398        4.94054919227173        1.12922554615856
H           -0.91237648652319        7.32980432612335        1.16442371127540
