44
 energy: -70.254257239960 gnorm: 0.000047624984 xtb: 6.7.1 (edcfbbe)
C            6.40659920723417       -0.94599894034923       -0.80892109546343
C            5.99047836261555       -0.27328768729758       -1.94770220113355
C            4.81366572165139        0.45013141067066       -1.93052093935163
C            4.05159325518645        0.52341168267572       -0.77097046642515
C            4.46834427664177       -0.15141041335198        0.36932411034012
C            5.64337648649910       -0.89222130072663        0.34139391061453
S            3.57948615355348       -0.08500750305405        1.90162500597396
C            1.90469437146746       -0.10023163753369        1.33603138372434
C            0.96902668750244       -0.80065284919332        2.09235220131508
C           -0.35728602912572       -0.81905076830309        1.72561062408022
C           -0.79796990574644       -0.13408254413522        0.58361376975333
C           -2.19924211089931       -0.14097777936097        0.19570550502280
C           -2.88708993199715       -1.39194730164041        0.04248780114111
C           -2.23971331271090       -2.62238144960720        0.14481445385569
C           -2.93596086453827       -3.82584980539472        0.00328359383266
C           -4.28605722431722       -3.81958328486831       -0.26797598981422
C           -4.94867492593553       -2.60498661444583       -0.43245149710970
C           -4.27240065459687       -1.38958942667812       -0.30003844647431
C           -4.92503262844918       -0.16141651425362       -0.53804568918666
C           -4.25695101514152        1.07628282416872       -0.42351414430116
C           -4.92602130273963        2.28099086227662       -0.65414239489138
C           -4.28680815831369        3.50580362612960       -0.47461163239309
C           -2.98162944538616        3.53305771349391       -0.03602086029590
C           -2.29078072461733        2.34082382324689        0.19651132886126
C           -2.88592433572368        1.10022810537937       -0.02771646070272
C            0.15254340721931        0.55771030122439       -0.17279948556421
C            1.48467905013585        0.57975440717970        0.19759569159478
S            2.59465048047336        1.53037266170280       -0.80870454488747
H            7.32378347469943       -1.51444824194840       -0.81649558503757
H            6.58096237304560       -0.31317313957810       -2.85002979728351
H            4.47556290867852        0.98015172591547       -2.80776511172606
H            5.95227289425133       -1.41004462388958        1.23655334096351
H            1.30206380971911       -1.31489069279368        2.98117604736774
H           -1.07674781970977       -1.33485811862692        2.34336238542022
H           -1.17568828577832       -2.65671010834345        0.32321011980533
H           -2.40257894435876       -4.75915408805522        0.10617120054411
H           -4.83015535605525       -4.74671242457984       -0.36963097629712
H           -6.00164676461125       -2.59305234967236       -0.67383438241400
H           -5.96794333198642       -0.16902591010202       -0.81941673762250
H           -5.95904340790080        2.25227830632165       -0.96924011546901
H           -4.82187337888036        4.42423589007605       -0.66461956666710
H           -2.48064797837668        4.47430690560655        0.13407242633179
H           -1.27978197837482        2.39330499711778        0.57046120707689
H           -0.14586191896281        1.06896844934383       -1.07562269680926
