44
 energy: -70.254263571429 gnorm: 0.000059616104 xtb: 6.7.1 (edcfbbe)
C            6.40743192063303       -0.89833847621514       -1.02338654177711
C            6.00203731550737       -0.04749748608048       -2.04035223014228
C            4.83249514566078        0.67599451350895       -1.90935382443313
C            4.06719574182698        0.57113357934835       -0.75422911097833
C            4.47313489343177       -0.28215546258031        0.26384258237855
C            5.64061321935478       -1.02151158971916        0.11912725396350
S            3.58395768732011       -0.45275083445722        1.78763270976349
C            1.90794991099123       -0.33998753123072        1.23750509357879
C            0.95865204136549       -1.12650311555629        1.88455076520359
C           -0.37038276154814       -1.05285404338932        1.53499791676654
C           -0.80044595838786       -0.18573395912637        0.51976243054166
C           -2.20495740044867       -0.08826963740936        0.15695856447407
C           -2.93768861200930       -1.27697421834387       -0.17702002367414
C           -2.33288977481958       -2.52917267737729       -0.27593381056378
C           -3.07237744730613       -3.67248476551456       -0.59078069225693
C           -4.42412008352788       -3.57962328031859       -0.83701617255501
C           -5.04532163600628       -2.33298285830386       -0.80177362452414
C           -4.32552516818532       -1.17581669809277       -0.49359465336472
C           -4.93733090690619        0.09515633539526       -0.52859666946654
C           -4.22571315233273        1.27730398012195       -0.23307754839354
C           -4.85514364506731        2.52439816562216       -0.26264900563483
C           -4.17252663763251        3.68453751111510        0.09642905106746
C           -2.86301473317975        3.60028739295581        0.51439248545160
C           -2.21140964304408        2.36458213381344        0.54726952620984
C           -2.85079455844117        1.19436889941250        0.14060763994329
C            0.16400914398835        0.58890197779117       -0.13159327872206
C            1.49886360526612        0.51920023961364        0.22293347698333
S            2.62372195277028        1.59061582606842       -0.63408672268783
H            7.31904074941284       -1.46755758151133       -1.12001890679182
H            6.59527117597180        0.05183255453537       -2.93624644075682
H            4.50281968953933        1.34333332995423       -2.69087224840377
H            5.94119462502772       -1.67919769367702        0.92035007310658
H            1.28376957845992       -1.78152844457626        2.67866407380812
H           -1.09916136718823       -1.63920066382419        2.07382647459666
H           -1.26897048767864       -2.62583032398835       -0.12144424026296
H           -2.57117663170522       -4.62766528998687       -0.64140854628137
H           -5.00143654816096       -4.46131360267444       -1.07214220095931
H           -6.09961652364342       -2.24890906199280       -1.02213455959194
H           -5.98266495765461        0.16559015355623       -0.79172502397138
H           -5.89158304678175        2.57888351204984       -0.56276606611700
H           -4.67744395830675        4.63830869846461        0.06034644119583
H           -2.32825344939617        4.48640226129642        0.82212645011381
H           -1.19578394759659        2.32515185557374        0.91007455231620
H           -0.12662992418241        1.24210332283196       -0.94054435628251
