  80
       -106.81061673
 C         -2.2176931655        0.5514195975       -3.4418786538
 C         -0.8557248501        1.0363823032       -2.9477097741
 C         -1.0192571468        2.1006934942       -1.9044189651
 C         -0.9089055997        3.4430388627       -2.2403472794
 C         -1.1004835306        4.4330517023       -1.2933704295
 C         -1.4044528867        4.0883264072        0.0128189342
 C         -1.5110141911        2.7556909443        0.3649408062
 C         -1.3247874205        1.7566216459       -0.5850369443
 P         -1.4431063797       -0.0228122449       -0.1564027670
 C         -3.2567732686       -0.1994339833        0.1231131203
 C         -4.1550945119        0.8510837102       -0.0287144383
 C         -5.5111223854        0.6534036489        0.1615992445
 C         -5.9860124721       -0.6020166499        0.4965431773
 C         -5.1005603256       -1.6585067135        0.6227882004
 C         -3.7391824364       -1.4770935543        0.4308148040
 C         -2.8039334035       -2.6491402605        0.5017169231
 C         -2.5418260101       -3.2072135348       -0.8964975779
 C         -0.8667392449        0.0935358434        1.5748193845
 C         -1.6199889495        0.1241479940        2.7351665026
 C         -0.9723177094        0.2352592138        3.9575815069
 C          0.4090039521        0.3154465793        4.0167432337
 C          1.1702106419        0.2565726089        2.8577273171
 C          0.5309479656        0.1165118325        1.6382042613
 P          1.2639527079        0.0207084274       -0.0318231411
 C          1.2986180544       -1.7978370575       -0.2726432239
 C          0.8431344124       -2.6882912501        0.6951630142
 C          0.8091994138       -4.0475241048        0.4460635676
 C          1.2197784080       -4.5331855102       -0.7832936784
 C          1.6806061945       -3.6550641832       -1.7463443850
 C          1.7351512802       -2.2879632207       -1.5073275677
 C          2.3008721933       -1.3798479982       -2.5605304013
 C          3.8191414555       -1.5255619918       -2.6595525326
 C          3.0411598418        0.2924427159        0.3744735770
 C          3.8061469139       -0.7076559472        0.9681839769
 C          5.1419183677       -0.4974811016        1.2543538128
 C          5.7292108540        0.7167464147        0.9402701705
 C          4.9748228941        1.7129665378        0.3477321326
 C          3.6307970644        1.5180711632        0.0566576631
 C          2.8193389758        2.6324884687       -0.5354145930
 C          2.0770210018        3.3878092586        0.5653627296
 H         -2.7935008360        0.1415462704       -2.6121921937
 H         -2.7820264738        1.3746206543       -3.8757520180
 H         -2.0963716492       -0.2239278296       -4.1949729550
 H         -0.3146813329        0.1887867518       -2.5147600420
 H         -0.2768175618        1.4233728441       -3.7890140227
 H         -0.6692856922        3.7148413589       -3.2593049094
 H         -1.0128237366        5.4730097902       -1.5735778125
 H         -1.5558310062        4.8561629914        0.7579986236
 H         -1.7456619901        2.4885126806        1.3864805557
 H         -3.7949034227        1.8339502284       -0.2970292206
 H         -6.1951301957        1.4822079926        0.0485274229
 H         -7.0433670767       -0.7606412106        0.6513517665
 H         -5.4721824076       -2.6435062988        0.8703342164
 H         -1.8520543569       -2.3402662334        0.9426606858
 H         -3.2332250719       -3.4309455163        1.1323376087
 H         -1.8677531793       -4.0590628784       -0.8451963673
 H         -2.0802232856       -2.4437208572       -1.5213448618
 H         -3.4736538018       -3.5198536782       -1.3631177920
 H         -2.6996574568        0.0725759707        2.6892566312
 H         -1.5527268369        0.2693357211        4.8685774796
 H          0.9007610564        0.4170061609        4.9736574119
 H          2.2489249245        0.3105592060        2.9095687209
 H          0.5262797888       -2.3192990033        1.6609618165
 H          0.4578053662       -4.7253121251        1.2109328264
 H          1.1839285637       -5.5932441772       -0.9891950602
 H          2.0043593635       -4.0340844853       -2.7058492343
 H          1.8517020911       -1.6147974233       -3.5291041897
 H          2.0614108762       -0.3399867487       -2.3141429913
 H          4.0904458540       -2.5483182386       -2.9117214032
 H          4.2861814188       -1.2700967869       -1.7107330712
 H          4.2126620737       -0.8628406171       -3.4270338500
 H          3.3492930992       -1.6590914593        1.2053470011
 H          5.7244183939       -1.2806494864        1.7180740327
 H          6.7741489148        0.8858725943        1.1563707149
 H          5.4356728477        2.6601452982        0.1029146386
 H          2.0847910373        2.2277714792       -1.2383343298
 H          3.4718728834        3.3209951531       -1.0763671448
 H          1.3882189780        2.7171209606        1.0777975778
 H          2.7790512524        3.7856568066        1.2956488216
 H          1.5026163846        4.2087625282        0.1429306444
