  68
       -109.56064344
 O          4.5560260757        2.2322617539       -1.2025001602
 C          5.0160651722        1.2773426329       -0.6093498613
 C          6.3968171370        1.3052438933       -0.0638731013
 C          6.9750140070        2.5507954054        0.1929863011
 C          8.2458309856        2.6389293936        0.7300348543
 C          8.9643941281        1.4871869440        1.0150887016
 C          8.4085397346        0.2448453994        0.7490237940
 C          7.1366164929        0.1623543743        0.2194582494
 S          6.4664539020       -1.4424338487       -0.2094068693
 O          6.7661483351       -1.7002219307       -1.5958326082
 O          6.9002893150       -2.4242912462        0.7490698100
 C          4.7049972092       -1.1783345991       -0.0549320310
 C          3.8749958060       -2.2419962334        0.2386676752
 C          2.5038680436       -2.0592315301        0.2812385638
 C          1.9478105733       -0.8085347866        0.0066543896
 C          0.4931195211       -0.6046017894        0.0240545324
 C         -0.1169185049        0.1988329915       -0.9379152531
 C         -1.4834789939        0.3913088090       -0.9225492313
 C         -2.2866109577       -0.1996517051        0.0491127664
 Si        -4.1623320035        0.0793653827        0.0332006465
 C         -4.9612737417       -1.0282073311       -1.2785921726
 C         -4.2189471046       -1.5875221879       -2.3136356395
 C         -4.8208805774       -2.3770455398       -3.2771395617
 C         -6.1827685958       -2.6209330536       -3.2216746789
 C         -6.9367571447       -2.0749069096       -2.1959993792
 C         -6.3287034514       -1.2877652304       -1.2353785449
 C         -4.8874570453       -0.3575542153        1.7277292007
 C         -5.1345450738       -1.6857743019        2.0655059374
 C         -5.6495928856       -2.0234973426        3.3036521023
 C         -5.9293411722       -1.0327488361        4.2303485915
 C         -5.6930239535        0.2934926556        3.9097432454
 C         -5.1768479838        0.6245972737        2.6696566757
 C         -4.4699838903        1.9050187747       -0.3668658460
 C         -3.6562641023        2.8912399250        0.1851445220
 C         -3.8754597159        4.2300478435       -0.0824571196
 C         -4.9175787001        4.6079243422       -0.9131123112
 C         -5.7340879675        3.6401250211       -1.4736000614
 C         -5.5101521457        2.3024526794       -1.2006913471
 C         -1.6697978380       -0.9946062775        1.0089019551
 C         -0.3037848373       -1.2005259561        0.9990428344
 C          2.7997662963        0.2505050596       -0.2916446474
 C          4.1824459738        0.0831863344       -0.3182354274
 H          6.4012686638        3.4370069458       -0.0356789953
 H          8.6786413927        3.6083443076        0.9259147888
 H          9.9556469490        1.5542793593        1.4368786868
 H          8.9417098832       -0.6715260212        0.9497946265
 H          4.3220759868       -3.2047123120        0.4321329259
 H          1.8575160895       -2.8953652712        0.5022910836
 H          0.4840295378        0.6533176637       -1.7119473454
 H         -1.9410224412        1.0175888298       -1.6750990753
 H         -3.1547846642       -1.4039208530       -2.3604904795
 H         -4.2273667729       -2.8034953555       -4.0731367971
 H         -6.6548914371       -3.2363751334       -3.9734381379
 H         -7.9994224136       -2.2645599968       -2.1457440700
 H         -6.9194066536       -0.8699764925       -0.4318350699
 H         -4.9244223343       -2.4617710094        1.3423198510
 H         -5.8353450465       -3.0598468291        3.5471897511
 H         -6.3326063553       -1.2936872551        5.1978817094
 H         -5.9132403438        1.0704830809        4.6276095077
 H         -4.9998160822        1.6615557423        2.4221638256
 H         -2.8369026376        2.6004256284        0.8284534663
 H         -3.2329402787        4.9807619077        0.3552503504
 H         -5.0904066700        5.6529725537       -1.1247991305
 H         -6.5460992631        3.9294685335       -2.1252141716
 H         -6.1474258747        1.5508937985       -1.6444656155
 H         -2.2719466999       -1.4532986529        1.7798833973
 H          0.1552427552       -1.8050973586        1.7681423407
 H          2.4026599513        1.2345190728       -0.4906350031
