68
 energy: -109.531700563498 gnorm: 0.000129594515 xtb: 6.7.1 (edcfbbe)
O            4.44277206515560       -2.41967575245809        0.73654288246637
C            4.99406983838173       -1.34082267605793        0.38010183541270
C            6.40576715014005       -1.31085179478681        0.04585009821403
C            7.07619684589117       -2.55032952476046       -0.07419438240303
C            8.38473961431686       -2.60734567995788       -0.48279650221448
C            9.09318108445683       -1.44448204918024       -0.78537997653804
C            8.46930701104852       -0.21721465907726       -0.64083131522307
C            7.15520045750104       -0.16287990297677       -0.22214687255104
S            6.45525560163767        1.43026076958279        0.13663545588848
O            6.71982627448352        1.73888850403790        1.53028328858553
O            6.91328226409363        2.41898481875643       -0.81649484813525
C            4.71698927330193        1.14014149772286       -0.05897767417363
C            3.89544972657544        2.21274726013359       -0.34722683807693
C            2.52389629616305        2.05427732174125       -0.34172162253972
C            1.96693857740280        0.80125269697884       -0.02880444760479
C            0.51124248633887        0.60483251706718       -0.01750131018600
C           -0.30146983006962        1.22203621315004       -0.96971716418882
C           -1.67054101243047        1.04873395636796       -0.94206726826229
C           -2.27675643060631        0.24679946293947        0.02312357617247
Si          -4.14633737455583       -0.06652698819333        0.02277220980279
C           -4.74260651810925       -0.11913979626624        1.82359583104741
C           -4.24309169813712        0.79638297823849        2.74828865794475
C           -4.70488980885770        0.81079366551904        4.05188070623761
C           -5.66911910362718       -0.09885461338062        4.45645551328361
C           -6.16944760991208       -1.01970453985563        3.55033042516541
C           -5.70627891520724       -1.03044207066450        2.24639921529558
C           -5.01191715696934        1.30863872582830       -0.96759050825257
C           -5.64046488418547        2.36242096507650       -0.31318094757580
C           -6.25742126403556        3.37144970329495       -1.03303625300666
C           -6.25253947249404        3.34014941106977       -2.41730660424226
C           -5.63138076654106        2.29448418615515       -3.08054096369811
C           -5.01690175972116        1.28616558998033       -2.35860348451957
C           -4.57076662494484       -1.71668119117881       -0.82797918109495
C           -3.60188671817150       -2.70106812292778       -0.98317061505467
C           -3.91416563830582       -3.90260971296979       -1.59670124819259
C           -5.19866957283812       -4.13416070129690       -2.05866638514659
C           -6.17181081484013       -3.15995560929450       -1.90775924726904
C           -5.85734503726402       -1.95887155246961       -1.29584495871035
C           -1.46138150951719       -0.35901723635980        0.97875052006457
C           -0.09139173254371       -0.19580457979064        0.95516244589448
C            2.80195175075919       -0.26563569058757        0.24150471646448
C            4.20552426856374       -0.13655929742314        0.19910954916591
H            6.50870682585795       -3.44084646054399        0.15307412427972
H            8.86882739036263       -3.56828197406710       -0.57556032639821
H           10.11949850130818       -1.49450468705719       -1.11223348358394
H            8.98148322768830        0.71237322723917       -0.83647481862052
H            4.35776064626631        3.16681599453271       -0.54909038296953
H            1.88503202121315        2.90063921294440       -0.53491910201381
H            0.14816471470863        1.82739995239446       -1.74220712169658
H           -2.28126961354751        1.54104804982974       -1.68394843778410
H           -3.48670720872049        1.50445474637847        2.44166518443038
H           -4.31068529503807        1.53071667195502        4.75493312087606
H           -6.02487174766784       -0.09330386340008        5.47668222810090
H           -6.91956823506246       -1.73239526233364        3.86173195246212
H           -6.09575343355672       -1.75631699393358        1.54796165467342
H           -5.65121549016353        2.39222164873665        0.76610880760641
H           -6.74264285755490        4.18359343451682       -0.51066659659248
H           -6.73334867410632        4.12812327282388       -2.97899760214363
H           -5.62704884587193        2.26376114022739       -4.16067506257701
H           -4.54021973716343        0.46935471116767       -2.88141128726027
H           -2.59685866885746       -2.52730659027856       -0.62914880465627
H           -3.15052120469846       -4.65834295638749       -1.71304387267698
H           -5.44140971558531       -5.07230430407414       -2.53678206007253
H           -7.17552468794773       -3.33438813857392       -2.26787006725048
H           -6.61829138077365       -1.19971913891447       -1.18623825594249
H           -1.90812747929804       -0.97224796776020        1.74771088680190
H            0.52066996740592       -0.67064257202748        1.70752293077140
H            2.41044456106581       -1.25086226583447        0.44849428408943
