  68
       -109.47859594
 O          4.3976863663       -2.4405842189        0.6540134043
 C          4.9587614495       -1.3622548581        0.3439790552
 C          6.3817588072       -1.3178732488        0.0522505712
 C          7.0509297366       -2.5587280931       -0.0630806122
 C          8.3701919639       -2.6110637758       -0.4341862711
 C          9.0887651812       -1.4463319862       -0.7000817539
 C          8.4639130555       -0.2187819163       -0.5588134275
 C          7.1388736487       -0.1709950399       -0.1772688766
 S          6.4438391720        1.4351460319        0.1824479410
 O          6.6708594976        1.7245568371        1.5774988038
 O          6.9177413949        2.4128419799       -0.7625507015
 C          4.7054633358        1.1312665002       -0.0629008467
 C          3.8946519533        2.2095529414       -0.3556104046
 C          2.5219616547        2.0544326417       -0.3699426403
 C          1.9584263651        0.8020474389       -0.0718955064
 C          0.5022345525        0.6081377837       -0.0636109667
 C         -0.3106326248        1.2225641198       -1.0150655198
 C         -1.6793344700        1.0424730823       -0.9885840342
 C         -2.2831125227        0.2432360161       -0.0222335131
 Si        -4.1528323966       -0.0595806237       -0.0039967899
 C         -4.7233288375       -0.0975101291        1.8024376732
 C         -4.1935078567        0.8034357582        2.7230273483
 C         -4.6151453638        0.8053703632        4.0399336950
 C         -5.5755436229       -0.1000353643        4.4605220281
 C         -6.1098382243       -1.0044515933        3.5581726633
 C         -5.6852991297       -1.0016195693        2.2414498576
 C         -5.0377201153        1.3186285069       -0.9605326459
 C         -5.6496542628        2.3762081877       -0.2962324881
 C         -6.2807705610        3.3862038303       -1.0006679502
 C         -6.3089150915        3.3532232508       -2.3845436782
 C         -5.7061136754        2.3051228544       -3.0602238582
 C         -5.0776838249        1.2970933101       -2.3516633773
 C         -4.5541961209       -1.7120745796       -0.8442670515
 C         -3.5845843629       -2.6984379323       -0.9884277943
 C         -3.8896876896       -3.9100091392       -1.5831500443
 C         -5.1728106282       -4.1532649920       -2.0429117399
 C         -6.1482157790       -3.1791328828       -1.9086401170
 C         -5.8383889998       -1.9691058740       -1.3144966381
 C         -1.4659841189       -0.3617922755        0.9299354767
 C         -0.0968983755       -0.1923091133        0.9091926971
 C          2.7840377486       -0.2706713451        0.1961130997
 C          4.1883795441       -0.1443268608        0.1700635561
 H          6.4724302190       -3.4485386656        0.1369737481
 H          8.8546707068       -3.5721475946       -0.5262773489
 H         10.1240566291       -1.4931670696       -0.9985765191
 H          8.9848820903        0.7104969816       -0.7283578513
 H          4.3594033623        3.1650794971       -0.5410350283
 H          1.8870229924        2.9037056032       -0.5653323204
 H          0.1371018733        1.8298605580       -1.7879273882
 H         -2.2942262550        1.5305458841       -1.7309563301
 H         -3.4390304398        1.5076970764        2.4007045561
 H         -4.1934168489        1.5122006913        4.7397857044
 H         -5.9035791330       -0.1024856673        5.4895173251
 H         -6.8568790558       -1.7144960910        3.8818647096
 H         -6.1007349290       -1.7136437827        1.5426902640
 H         -5.6344619930        2.4040374427        0.7839152571
 H         -6.7522244583        4.1996482030       -0.4685696107
 H         -6.8019490631        4.1404431108       -2.9356576859
 H         -5.7275793727        2.2725322030       -4.1398934446
 H         -4.6155242568        0.4762798613       -2.8825257838
 H         -2.5805487641       -2.5124494862       -0.6349471120
 H         -3.1240386233       -4.6649657603       -1.6878240414
 H         -5.4121106435       -5.0989130319       -2.5065967257
 H         -7.1504667020       -3.3624300984       -2.2677761915
 H         -6.6004269006       -1.2083262982       -1.2173922705
 H         -1.9140229534       -0.9745812921        1.6991118207
 H          0.5161939476       -0.6622045372        1.6635065198
 H          2.3867663917       -1.2551893607        0.3910967712
