68
 energy: -109.611343029511 gnorm: 0.000027627762 xtb: 6.7.1 (edcfbbe)
O            4.63922094972904        2.18206177253694       -1.33247895531386
C            5.06103777025352        1.24745358391179       -0.67557996325182
C            6.41622888494070        1.28474111958078       -0.07174036191604
C            6.98346886091059        2.52861663899733        0.21423862972417
C            8.23202025430929        2.61127845112834        0.80397055894268
C            8.93810876995407        1.45782568737346        1.11228572077392
C            8.39413204675120        0.21598610118145        0.81658612096797
C            7.14469795103254        0.14034986632261        0.23649529298861
S            6.47136901428214       -1.44282912907377       -0.24599706375267
O            6.77193097449486       -1.64456980711724       -1.64819485623792
O            6.91591343398568       -2.47460691146680        0.66123627844922
C            4.71416938412390       -1.18737304453831       -0.08562368132013
C            3.87675230049313       -2.24083544458202        0.22118454347727
C            2.50721553627952       -2.04298373233144        0.26220496377391
C            1.96125512282423       -0.79063744272629       -0.02820910857204
C            0.50706997511652       -0.57967989497657       -0.00481147641261
C           -0.11038694212391        0.22124866461698       -0.96485913188909
C           -1.47774789641008        0.41268445108084       -0.94155379106126
C           -2.27591839087281       -0.17572009942154        0.03691133577899
Si          -4.15550254032919        0.09330131817654        0.03183942429587
C           -4.95927162893681       -1.02275240065343       -1.27384051963130
C           -4.21913184781400       -1.59931212007646       -2.30147048272788
C           -4.82356784701320       -2.39981120150126       -3.25501666906444
C           -6.18681571533968       -2.63763432600295       -3.19807910737400
C           -6.93927685359461       -2.07352743742632       -2.18063311606087
C           -6.32828626042642       -1.27576847784133       -1.23002767214876
C           -4.87361305356670       -0.35287967153985        1.73031436922614
C           -5.09680121812502       -1.68492318595515        2.07172514767079
C           -5.61236502886388       -2.02979094937478        3.30813473902227
C           -5.91725789808311       -1.04250243526948        4.23113872743841
C           -5.70361621154025        0.28729041217030        3.90809582640456
C           -5.18691723666600        0.62510807103533        2.66947743943718
C           -4.48601694794347        1.91836956369588       -0.36462406732195
C           -3.69318373129127        2.91533441701288        0.19927616114763
C           -3.93062586231400        4.25242139694857       -0.06397119788998
C           -4.97064168884939        4.61892719466932       -0.90276380812530
C           -5.76680926345137        3.64080422090472       -1.47527652458505
C           -5.52432806221547        2.30503026342113       -1.20650128181692
C           -1.65070174149735       -0.96669732395623        0.99593917032211
C           -0.28451124164216       -1.17190437779577        0.97790287191009
C            2.82266906044316        0.25800457761521       -0.34300245062306
C            4.20377462811898        0.07627572980655       -0.36788432215803
H            6.42121063974192        3.41697089819152       -0.03217620889435
H            8.65702414825326        3.57883762867494        1.02247821293558
H            9.91114734698678        1.52195021428935        1.57400760519367
H            8.91797609642048       -0.70240854207780        1.03149260316174
H            4.31643310874305       -3.20449951543039        0.42661171165130
H            1.85452806630918       -2.86994247738733        0.49527379695369
H            0.48350345528293        0.67419396494255       -1.74537691615505
H           -1.93917530204204        1.03558907845882       -1.69459435791947
H           -3.15433053817478       -1.42217819044556       -2.35121940122397
H           -4.23112005465436       -2.83990965128284       -4.04512935213696
H           -6.66109069761334       -3.26233747936709       -3.94175273300751
H           -8.00349277612211       -2.25739037679402       -2.12936717673925
H           -6.92011647997824       -0.84397728952038       -0.43473479233031
H           -4.86803981229064       -2.45994825068649        1.35341968092559
H           -5.77948239419564       -3.06938231215201        3.55362695249104
H           -6.32201810616445       -1.30880374166824        5.19727356259077
H           -5.94248988701132        1.06206450457222        4.62329159599752
H           -5.02842402529362        1.66514400533926        2.42267316138502
H           -2.87630888151764        2.63586292509327        0.85008626145615
H           -3.30434991503133        5.01158282888574        0.38373674468487
H           -5.15826347337907        5.66278166255250       -1.11098359666493
H           -6.57755405801305        3.92107368753655       -2.13332659446895
H           -6.14698422473539        1.54757267142637       -1.66085703655870
H           -2.24598868016077       -1.42401131701732        1.77262114715826
H            0.17820147480659       -1.77393200047422        1.74610818217769
H            2.43487984982818        1.24364822730488       -0.55348967735668
