  86
       -130.89240418
 C         12.7654518452       -1.7412730456       -1.1424319122
 C         12.2734621321       -0.8883277276        0.0299789251
 C         13.0116292149        0.4570885275       -0.0147529896
 C         12.6114728713       -1.6258994065        1.3333226856
 C         10.7752797290       -0.6315389757       -0.0191826795
 C          9.9551870343       -1.1300207760       -1.0236919206
 C          8.5966922047       -0.8659425756       -1.0415537055
 C          8.0310202329       -0.0985333809       -0.0402906532
 N          6.6260122048        0.1863532410       -0.0534618700
 C          6.2634515499        1.5100943152       -0.2522866585
 O          7.1043613971        2.3674165698       -0.4287096882
 C          4.8188095402        1.7963439863       -0.2414140979
 C          4.3910274608        3.0915677205       -0.4440164985
 C          3.0271884105        3.3815865326       -0.4526868519
 C          2.1026198310        2.3902718768       -0.2384448394
 C          2.4957533962        1.0574135004       -0.0032376518
 C          1.5652721036       -0.0033956476        0.2285056283
 C          0.1503846842        0.2736099389        0.3685158526
 C         -0.8381306431       -0.5791225796        0.0520094466
 C         -2.2549422248       -0.3256927456        0.2012990538
 C         -2.7560272993        0.7592439569        0.9626788851
 C         -4.0941900006        0.9876526699        1.0695891211
 C         -5.0322376362        0.1531501697        0.4205948135
 C         -6.4134635440        0.3789105620        0.5054270104
 C         -7.3109581891       -0.4465492117       -0.1400756288
 N         -8.6813381223       -0.2010192133       -0.0834315310
 C         -9.1578381626        1.1166130143       -0.0242117872
 C        -10.2481595110        1.4364440029        0.7834764289
 C        -10.7207854918        2.7337753583        0.8316922279
 C        -10.1131535558        3.7301493659        0.0855294308
 C         -9.0280307876        3.4173796981       -0.7170006857
 C         -8.5531933227        2.1217620136       -0.7780256341
 C         -9.5918328329       -1.2649395808       -0.0640165827
 C         -9.2978408972       -2.4361507745        0.6334631832
 C        -10.1995717358       -3.4827151373        0.6452552712
 C        -11.4068999048       -3.3765647158       -0.0253453076
 C        -11.7059819868       -2.2124488167       -0.7144575877
 C        -10.8073063178       -1.1640132665       -0.7401902183
 C         -6.8234182531       -1.5467797109       -0.8850377199
 C         -5.4856478522       -1.7902337029       -0.9717298428
 C         -4.5466051442       -0.9516722937       -0.3294252621
 C         -3.1632721067       -1.1667002894       -0.4152951955
 C          2.0478640399       -1.2963862443        0.3652468579
 C          3.4065657338       -1.5794390884        0.3153994055
 C          4.3292190283       -0.5667445444        0.1347747862
 C          3.8839237861        0.7605425727       -0.0328156804
 C          5.7628530787       -0.8871429564        0.1281334658
 O          6.1924739407       -2.0119283470        0.2825661667
 C          8.8260980160        0.4025058742        0.9771929963
 C         10.1807184103        0.1378016240        0.9784399936
 H         13.8399851070       -1.8904966579       -1.0557445176
 H         12.5708379364       -1.2493117028       -2.0925141563
 H         12.2899548459       -2.7191899717       -1.1415888541
 H         14.0875182468        0.2945844320       -0.0028068859
 H         12.7530493986        0.9968644966       -0.9232657250
 H         12.7523568689        1.0808587314        0.8358934609
 H         13.6777267080       -1.8381961549        1.3778631132
 H         12.0690024913       -2.5675510994        1.3832658863
 H         12.3458961837       -1.0339911663        2.2046210094
 H         10.3624847210       -1.7327438428       -1.8185502940
 H          7.9765363375       -1.2600268222       -1.8325095251
 H          5.1286589070        3.8634787059       -0.6030669821
 H          2.6997337600        4.3946512623       -0.6321678010
 H          1.0529776165        2.6381365199       -0.2696298148
 H         -0.1019785072        1.2489414474        0.7573841463
 H         -0.5895615748       -1.5299140654       -0.4026498977
 H         -2.0648882964        1.4070091615        1.4796841849
 H         -4.4622787901        1.8175987959        1.6560085602
 H         -6.7721673702        1.2175389291        1.0849183517
 H        -10.7182987119        0.6622268669        1.3720443490
 H        -11.5649438582        2.9692368171        1.4628857978
 H        -10.4827784562        4.7433282795        0.1285865760
 H         -8.5516086259        4.1865609375       -1.3068921472
 H         -7.7121254478        1.8787141710       -1.4108207628
 H         -8.3626137709       -2.5158943375        1.1684108308
 H         -9.9610763956       -4.3839232455        1.1906390480
 H        -12.1105591850       -4.1948295497       -0.0102653258
 H        -12.6432185981       -2.1226579910       -1.2435796596
 H        -11.0378551098       -0.2605494591       -1.2856082502
 H         -7.5306409089       -2.1816885522       -1.3981778802
 H         -5.1233154258       -2.6268149927       -1.5518351387
 H         -2.8070308784       -2.0092566946       -0.9926372763
 H          1.3530546890       -2.1005448008        0.5543192836
 H          3.7668629413       -2.5899658955        0.4381884715
 H          8.3846374758        1.0022375016        1.7589321863
 H         10.7790398878        0.5414235538        1.7809534938
