86
 energy: -130.892367262916 gnorm: 0.000061136205 xtb: 6.7.1 (edcfbbe)
C           12.52654552301449        1.01053933002225       -0.66380284665160
C           11.91618148899975       -0.29385235634206       -0.13204000960612
C           12.56536850457671       -0.60823686722967        1.21852641679723
C           12.23096964322566       -1.44808176539819       -1.09399205856528
C           10.40755334622295       -0.12897335259414       -0.03354172102591
C            9.67304297663172        0.15363724877064       -1.18289501179135
C            8.30247976520430        0.31614752073981       -1.14520890956779
C            7.63147416267098        0.18889185774608        0.05940394593603
N            6.20782152613952        0.34714037263761        0.11343743242273
C            5.72567499534978        1.42389737764593        0.84203290307033
O            6.48456598767844        2.20953382290036        1.37113183038622
C            4.26011554214601        1.54917487236087        0.92436288354274
C            3.71744939153220        2.57761358945865        1.66544153864985
C            2.33305488921305        2.70055228914400        1.77646399208832
C            1.50112836445299        1.81311837132613        1.14112872873986
C            2.01077494584072        0.76240404726879        0.35194513486040
C            1.18007029563735       -0.18333399215942       -0.32735808642165
C           -0.26371379762085       -0.06722106088572       -0.29012361722469
C           -1.10951367735150       -1.10773580448285       -0.37667879502254
C           -2.55445635999430       -1.05284735102138       -0.33906484242864
C           -3.26985034801131       -2.27649981279158       -0.37449066729465
C           -4.63050502454213       -2.30828020201538       -0.32864585172472
C           -5.38078830628051       -1.11405981634730       -0.24129889901998
C           -6.78233300418997       -1.11564360227712       -0.18914879383729
C           -7.49334841280756        0.06318663020388       -0.09862492554869
N           -8.88417759574207        0.06261748755430       -0.02272878778728
C           -9.55710951239653       -0.98336088264484        0.62511123665717
C          -10.74873432410325       -1.48392640105398        0.10284426937713
C          -11.41591842202239       -2.50646565413520        0.74935880256573
C          -10.90531718507555       -3.04923991310942        1.91691617881147
C           -9.72017630628804       -2.55646393422985        2.43843053769298
C           -9.04984863892486       -1.52907997322299        1.80362295624792
C           -9.62464217219206        1.09362359637233       -0.61549135775155
C           -9.22433749166565        1.64384750834138       -1.83271636732138
C           -9.95674054914322        2.66394449936525       -2.40846853393356
C          -11.09970433270252        3.14291891582909       -1.78969879777974
C          -11.50525967254134        2.59437426152614       -0.58384021612045
C          -10.77474998463015        1.58063526194530        0.00467650059273
C           -6.79031385321852        1.29161027724555       -0.06661582962211
C           -5.42994330938364        1.31627438094803       -0.12652027941320
C           -4.67904384572449        0.12158399758130       -0.21446066303870
C           -3.27793088549599        0.12295472537962       -0.26494919219660
C            1.78357606766939       -1.20680079014307       -1.04351321268391
C            3.16379432080984       -1.33635731673109       -1.11639831362418
C            3.98864658931961       -0.43191117871553       -0.47570414970124
C            3.42198125047957        0.62712688142057        0.26253170972368
C            5.44526753992668       -0.59837932075714       -0.56148969264836
O            5.97445067268401       -1.50779757765775       -1.16690352290371
C            8.33761211722658       -0.09502831347220        1.21418652630936
C            9.71187918809821       -0.24690977264926        1.16330278528250
H           13.60939431982880        0.92110413472406       -0.72169718792871
H           12.28256798734278        1.83679955296753        0.00050607414233
H           12.15122754331909        1.24883035965494       -1.65494734947690
H           13.64026989774838       -0.71622432627582        1.08704511319047
H           12.39386698882971        0.19466363909809        1.93153589606749
H           12.18261693870733       -1.53961849287767        1.62917201025385
H           13.30662821525401       -1.59863418041984       -1.15903496448942
H           11.85462464255919       -1.24644592900334       -2.09273813748334
H           11.77359571087354       -2.36863552136898       -0.73780125606427
H           10.17282865628791        0.25443624394643       -2.13420016772321
H            7.75202660348777        0.53462075535403       -2.04774696775536
H            4.38266756283621        3.26999286459619        2.15873150716273
H            1.91596378668601        3.49871280955194        2.37212459835067
H            0.43455821912386        1.92029313917215        1.26200390128256
H           -0.66200842794094        0.92930942348085       -0.17301134281356
H           -0.69914509901324       -2.10742205674659       -0.44560039901581
H           -2.71071474500322       -3.19952912415751       -0.43710963103938
H           -5.15925740046182       -3.25038185399048       -0.35558146892357
H           -7.30564775667619       -2.06056507483950       -0.22034381278304
H          -11.14412918791258       -1.06731639044755       -0.81202182326949
H          -12.33706836499971       -2.88704687960045        0.33334652889715
H          -11.42746619298541       -3.85031547563825        2.41752638455139
H           -9.31808038918889       -2.96926504211770        3.35190862625665
H           -8.13113604370700       -1.13973354433614        2.21747172565263
H           -8.34054179837771        1.26271459060874       -2.32344285766807
H           -9.63706693814827        3.08096108432668       -3.35208808454252
H          -11.67136036901751        3.93740060990293       -2.24459621385612
H          -12.39314739950865        2.96433737321165       -0.09271609288521
H          -11.08695162350569        1.16009974089440        0.94942472605593
H           -7.35174953887887        2.21009448563114        0.02117086351566
H           -4.90339804613797        2.25942192533102       -0.09327944877156
H           -2.77358184984557        1.07773977208840       -0.24453931923473
H            1.16571705749744       -1.90745250052981       -1.58403656226093
H            3.61621342495346       -2.13832439841478       -1.68031365230679
H            7.81455028413939       -0.19148200048121        2.15379895369607
H           10.23010824911208       -0.46400482492871        2.08263447376234
