86
 energy: -130.837158148149 gnorm: 0.000034253058 xtb: 6.7.1 (edcfbbe)
C           12.73915884354643       -1.51788576441313       -1.41943131038554
C           12.23237007688236       -1.05703992581067       -0.05008690990933
C           13.03587507781902        0.18368749980914        0.36422779179516
C           12.47151775522960       -2.19296849624888        0.95460670764737
C           10.75181603723096       -0.70842804997706       -0.05890823653757
C            9.95863252972718       -0.80660823325954       -1.19523296723180
C            8.61503582919459       -0.47703425210645       -1.16581662681962
C            8.03423021453245       -0.04876296741867        0.01426799779250
N            6.64433239410746        0.28757952687010        0.05149693965421
C            6.32120575091674        1.60213993283081        0.34702331590700
O            7.19221886940419        2.43081637697034        0.54593173995400
C            4.89159951002059        1.92535715510395        0.38933772323935
C            4.51286471311259        3.23371255538378        0.67813370587325
C            3.17389681772867        3.56311950401675        0.71060346397879
C            2.20359531202012        2.60029435853002        0.46614014389898
C            2.53428549667016        1.27436546078700        0.18424392452753
C            1.55005173111902        0.23491543728969       -0.06971998428746
C            0.18205475717821        0.49080754261988        0.01968710762447
C           -0.85792041295234       -0.40340045845186       -0.24288811984816
C           -2.23211330484834       -0.13305802128071       -0.12268909663210
C           -2.76332840120105        1.11187699467196        0.33582867920536
C           -4.09795599726686        1.32149385953207        0.43665402582137
C           -5.03793051912276        0.31222153763112        0.08597270264364
C           -6.41068931807358        0.51338285255351        0.18370250986155
C           -7.31051346190769       -0.49210025790209       -0.15550764193158
N           -8.67941998412145       -0.28325374678504       -0.05953295318363
C           -9.22073137693558        0.98971143073774       -0.28401821731370
C          -10.27956024237345        1.45095507738370        0.49798484158316
C          -10.81640745287579        2.70278771225187        0.26887909718583
C          -10.30674255612036        3.51153562886298       -0.73424242147072
C           -9.25470727951300        3.05702490238857       -1.51334441252942
C           -8.71380114268525        1.80494592760028       -1.29616347931191
C           -9.53586308344711       -1.34057936160873        0.27499827878876
C           -9.15246510053301       -2.28578563766609        1.22656009604457
C          -10.00216554198279       -3.32492326065993        1.55193361912042
C          -11.24197765289002       -3.43403260922514        0.94276021302324
C          -11.62862518407454       -2.49398549671493        0.00088519905775
C          -10.78456817676609       -1.45397826792771       -0.33601681402207
C           -6.81314040151839       -1.73549222684255       -0.60910563514961
C           -5.47241130832613       -1.95074124394452       -0.71471969038539
C           -4.53435373039722       -0.94315085183619       -0.36972334279050
C           -3.16216077898439       -1.13847062519328       -0.46254504774464
C            2.03811050310043       -1.06947511263186       -0.39260135152357
C            3.36622290995456       -1.36319628318868       -0.43648541512299
C            4.33196942255229       -0.37389422305872       -0.16980455790649
C            3.91762237573728        0.94038607758610        0.13667020007262
C            5.73951211204955       -0.73601997059092       -0.21598528926618
O            6.13188265652292       -1.86658046955069       -0.45865501996242
C            8.80404167774720        0.05259844526266        1.16159839140687
C           10.14537834971403       -0.27014982784681        1.11596228490052
H           13.79979855982935       -1.75309256748922       -1.35295053126184
H           12.61488304827907       -0.73652483261956       -2.16549267453618
H           12.21678618173093       -2.41301674279949       -1.74854057961994
H           14.10099025374320       -0.03944161992622        0.35707493924136
H           12.84849162933459        1.00055947620636       -0.32939224709966
H           12.76439276819023        0.51694589192684        1.36176034915926
H           13.52289054595777       -2.47375922011242        0.96038905988285
H           11.88161126032263       -3.06524893984111        0.68129199771611
H           12.19288681943248       -1.89626228043271        1.96175994977146
H           10.37603558285138       -1.14008205663444       -2.13108168978710
H            8.01579214938960       -0.55972186473934       -2.05990017830433
H            5.28489958447389        3.96365757466073        0.86589493322406
H            2.87137130369582        4.57716156203975        0.92627948503675
H            1.17178237995465        2.91306765353463        0.49555945865844
H           -0.11170838780803        1.48341668880227        0.32205754977582
H           -0.61412553122916       -1.39918117748978       -0.58391839753141
H           -2.08462169342879        1.90317533846727        0.61301619424488
H           -4.47842045948782        2.27081539673898        0.78679432157954
H           -6.78064137933751        1.46171175554760        0.54693085954335
H          -10.66959481304639        0.82508833132033        1.28712712115590
H          -11.63301652869753        3.05185381732386        0.88288500035241
H          -10.72760517989488        4.48974322106504       -0.90862535884441
H           -8.85748908520072        3.67834623504890       -2.30195390899871
H           -7.90341171597735        1.44503477709539       -1.91285139125320
H           -8.19216628632929       -2.19197232310568        1.71203917158235
H           -9.69736328431869       -4.04913786951052        2.29239839402215
H          -11.90356278424369       -4.24633318297340        1.20137259089491
H          -12.59139124250529       -2.57521145595157       -0.48095613909648
H          -11.08102371786818       -0.72741785130860       -1.07819261785169
H           -7.51526988470187       -2.50594400676608       -0.89172630192938
H           -5.10214624555420       -2.89799584178209       -1.07823018380601
H           -2.79356205154156       -2.09478537319983       -0.80649150517812
H            1.32614161470440       -1.85288233912495       -0.59490635891535
H            3.71886453401929       -2.35581860815004       -0.67223117823644
H            8.35340811150729        0.38956904331113        2.08284278230489
H           10.72345244602979       -0.17898436927569        2.02308161805044
