74
 energy: -123.081135841824 gnorm: 0.000034619411 xtb: 6.7.1 (edcfbbe)
N            0.00042515935242        0.95483534323643       -0.18420213586184
C            0.00031916218917       -0.19307716022237       -0.19324695000993
C           -0.00014044670694       -1.60560586541835       -0.27904252010490
C           -1.21559189573405       -2.30367593785852       -0.38247470372436
C           -2.50980411769302       -1.62596060023009       -0.25957566400055
C           -3.52972678283207       -1.88533120478508       -1.17413958080843
C           -4.74577162662949       -1.24122846195719       -1.07033009324831
C           -4.97295625405181       -0.33616038384670       -0.03639924902038
N           -6.21361760193291        0.32813891808643        0.06710811294070
C           -6.28658512446507        1.71908320004240       -0.05480897061203
C           -5.17041725724339        2.50250460387683       -0.32294446056000
C           -5.27981591705417        3.88024936436628       -0.43927091822398
C           -6.50637088786507        4.49815045906863       -0.30189030105202
C           -7.63571134955838        3.72766678150107       -0.06463572444044
C           -7.53179600990310        2.35367505749599        0.04935715310142
O           -8.70160374106619        1.65744208525402        0.25120888343852
C           -8.61034856471521        0.29040582543258        0.37617519244450
C           -9.78849733476649       -0.39644119513134        0.60360782182144
C           -9.77536656404379       -1.77369929126165        0.77247680349514
C           -8.57381568621809       -2.45154882350324        0.72977275589883
C           -7.38986361268423       -1.76676561198977        0.49999795150032
C           -7.38873899597898       -0.39181848604195        0.29777976643925
C           -3.96563245201825       -0.09137575305212        0.89331300388783
C           -2.74541168729413       -0.72561489991282        0.77807346494026
C           -1.13684093830380       -3.67748075070769       -0.61306331037393
N           -0.00115982465752       -4.33942993493173       -0.72758016259006
C            1.13496122423010       -3.67906236194011       -0.60846339620154
C            1.21476880436904       -2.30526556167053       -0.37805134747828
C            2.50938885837008       -1.62899970406160       -0.25173451005034
C            3.53218490694063       -1.89195911416125       -1.16211032961099
C            4.74819580852485       -1.24820200451683       -1.05639962432149
C            4.97234242393493       -0.33949704306506       -0.02499685720216
N            6.21250026721216        0.32584733018801        0.07879877787409
C            6.28670522504005        1.71527633869596       -0.05871600814797
C            5.17030563770169        2.49744142374239       -0.32943280671330
C            5.28135543068820        3.87344049584334       -0.46322886710510
C            6.50982390864155        4.49074204538278       -0.34099659026426
C            7.63901489392516        3.72126505575537       -0.09977261082189
C            7.53336097464026        2.34905916619193        0.03240738466496
O            8.70299992848454        1.65354925829778        0.23799096326427
C            8.61060280821066        0.28794347954678        0.37701607750911
C            9.78873452259053       -0.39837123414262        0.60609667410903
C            9.77435137016411       -1.77395741437140        0.78815334395121
C            8.57174453432217       -2.45055974616656        0.75674498048987
C            7.38778543083975       -1.76633022037031        0.52540120609446
C            7.38779846967636       -0.39332580503978        0.31041140219478
C            3.96248926871938       -0.09166889835370        0.90108083379910
C            2.74240711648266       -0.72600062099451        0.78418010125524
H           -3.35420840839734       -2.57078986512764       -1.98974601105669
H           -5.52493192552331       -1.42928807099320       -1.79384116006688
H           -4.20639158628731        2.03474546645920       -0.44748158729108
H           -4.39371522884000        4.46175628338923       -0.64257708744987
H           -6.59676895027454        5.56960320313106       -0.38708871101215
H           -8.61288373951312        4.17513246362211        0.02895642769070
H          -10.70714420989794        0.16726083246257        0.65000236457440
H          -10.70034182891428       -2.30061985137122        0.94625639604245
H           -8.54411733750398       -3.52018740065530        0.87807171370944
H           -6.45638798169975       -2.30676459841607        0.48526826296869
H           -4.14502882086989        0.59692324374054        1.70554149602250
H           -1.97766230371953       -0.53956857841088        1.51475462519456
H           -2.03781142621781       -4.27008697036421       -0.69743527870167
H            2.03539822867338       -4.27301768166817       -0.68893992261964
H            3.35887899381160       -2.57969010967507       -1.97626856193249
H            5.52971118016011       -1.43913161019245       -1.77662089786051
H            4.20480713760468        2.02994129071448       -0.44298527876304
H            4.39507472048203        4.45401551942927       -0.66841860842598
H            6.60167460666473        5.56083944906332       -0.44048138680764
H            8.61743177427957        4.16812866285308       -0.01682332101813
H           10.70841164614597        0.16433926436147        0.64314021066743
H           10.69931491180025       -2.30050153887208        0.96314333962270
H            8.54124515061005       -3.51772124355967        0.91516467355717
H            6.45340253935992       -2.30497931692562        0.51934567292099
H            4.13960860664142        0.59907292551308        1.71171645512390
H            1.97258002322420       -0.53752632413394        1.51807322254737
