  74
       -123.03010603
 N         -0.0036903200        0.9845348458       -0.1651449868
 C         -0.0014903507       -0.1628435238       -0.1671176665
 C          0.0005012095       -1.5761161823       -0.2434179662
 C         -1.2144573062       -2.2744929476       -0.3451981688
 C         -2.5088703702       -1.5982505653       -0.2333436838
 C         -3.5318585560       -1.8857735505       -1.1360554590
 C         -4.7515844256       -1.2493432184       -1.0414559211
 C         -4.9837096133       -0.3237449331       -0.0259580169
 N         -6.2274442922        0.3253703445        0.0728604053
 C         -6.3126009134        1.7187649163       -0.0259314031
 C         -5.2020244495        2.5173530844       -0.2687471591
 C         -5.3247863989        3.8953944567       -0.3629419935
 C         -6.5591895828        4.4977347769       -0.2289689141
 C         -7.6827986147        3.7118941746       -0.0215984858
 C         -7.5660242486        2.3373357653        0.0708207417
 O         -8.7285098596        1.6271793800        0.2395012077
 C         -8.6295449277        0.2620930075        0.3311499465
 C         -9.8070137045       -0.4387014818        0.5158409189
 C         -9.7871397123       -1.8185113272        0.6537261044
 C         -8.5796979953       -2.4860473553        0.6268427977
 C         -7.3963753712       -1.7877844051        0.4396105217
 C         -7.4016676212       -0.4097248363        0.2627460386
 C         -3.9708123820       -0.0481864334        0.8900162161
 C         -2.7462113943       -0.6730889862        0.7819057784
 C         -1.1362652962       -3.6500652069       -0.5640391102
 N         -0.0016662732       -4.3139985839       -0.6673155535
 C          1.1338036105       -3.6536167684       -0.5511268302
 C          1.2146875815       -2.2775683561       -0.3351653775
 C          2.5100330062       -1.6039112368       -0.2201840281
 C          3.5418021715       -1.9122705542       -1.1062240619
 C          4.7619085313       -1.2766245948       -1.0124422580
 C          4.9840756954       -0.3274674733       -0.0168737229
 N          6.2272646847        0.3241330437        0.0773031685
 C          6.3166944158        1.7121063869       -0.0749148973
 C          5.2094799151        2.5031028903       -0.3546076828
 C          5.3365448182        3.8761948190       -0.5013399942
 C          6.5716510969        4.4801644172       -0.3823345491
 C          7.6920102455        3.7003706171       -0.1373832984
 C          7.5713171499        2.3305628493        0.0060774840
 O          8.7308138862        1.6240510198        0.2083814677
 C          8.6272631350        0.2637280735        0.3526159146
 C          9.8009256858       -0.4336573046        0.5710754130
 C          9.7745868286       -1.8069232529        0.7635528986
 C          8.5647939186       -2.4707601153        0.7564201103
 C          7.3852814498       -1.7761949245        0.5342058889
 C          7.3975499162       -0.4063016091        0.3031474443
 C          3.9631150341       -0.0308305977        0.8830878164
 C          2.7395788339       -0.6586107699        0.7782548206
 H         -3.3540914899       -2.5870942927       -1.9380152848
 H         -5.5309480635       -1.4571345759       -1.7594794493
 H         -4.2321511055        2.0626176274       -0.3941819962
 H         -4.4426353512        4.4891929449       -0.5455395380
 H         -6.6590160560        5.5694048956       -0.2960402006
 H         -8.6656427950        4.1466325283        0.0655111480
 H        -10.7299314217        0.1173536130        0.5546484520
 H        -10.7108855247       -2.3571572051        0.7932081389
 H         -8.5441067370       -3.5569556906        0.7544141145
 H         -6.4587851164       -2.3214172210        0.4401952694
 H         -4.1532024619        0.6542137928        1.6892507026
 H         -1.9760778852       -0.4630861468        1.5090078813
 H         -2.0377913150       -4.2422235755       -0.6458153154
 H          2.0337946600       -4.2494800878       -0.6221700102
 H          3.3714880735       -2.6306675497       -1.8944576683
 H          5.5492432896       -1.5025392043       -1.7161944257
 H          4.2394477667        2.0455464563       -0.4681082529
 H          4.4573294646        4.4648104612       -0.7126726372
 H          6.6746947355        5.5482358405       -0.4899908959
 H          8.6752240225        4.1361461503       -0.0603825971
 H         10.7261387207        0.1195957781        0.5918682387
 H         10.6955802245       -2.3431858836        0.9286516651
 H          8.5243790061       -3.5355870432        0.9266173865
 H          6.4451357059       -2.3052629852        0.5495815499
 H          4.1382410384        0.6903126087        1.6670940507
 H          1.9634488209       -0.4327420392        1.4940587541
