74
 energy: -123.011431769092 gnorm: 0.000058288029 xtb: 6.7.1 (edcfbbe)
N            0.00084342457298        1.03005650293556       -0.48410382291846
C            0.00022265638385       -0.13365690317574       -0.52816537703144
C           -0.00032396931446       -1.50959869742687       -0.60556677759723
C           -1.23268677654587       -2.24371084078422       -0.73431989446362
C           -2.51881552833002       -1.61534643868271       -0.48968782412177
C           -3.63352939716358       -1.91520464518427       -1.28734945830018
C           -4.84379937029541       -1.29391245970555       -1.08006745924917
C           -4.98065946178518       -0.35341667667788       -0.05924192234615
N           -6.21520174226950        0.31441764727863        0.13671532129418
C           -6.31235787617238        1.68270512349585       -0.07822697676831
C           -5.23342907288074        2.44655921969245       -0.52216068396869
C           -5.37040046057662        3.80798183840368       -0.72170556701267
C           -6.58465732983502        4.43550778855432       -0.49207635511705
C           -7.67521708428608        3.69021770450673       -0.07702136237486
C           -7.54747340155447        2.32514437436963        0.12361692109967
O           -8.66830197742721        1.64205753878031        0.50563327651419
C           -8.55885093907895        0.29459044873230        0.70587653497570
C           -9.70204067535428       -0.38381888736022        1.09684285696011
C           -9.65142565458184       -1.74574595492144        1.34149180383200
C           -8.44983691246844       -2.42391398063794        1.21045967778229
C           -7.30483902263289       -1.75512685916685        0.81844585305138
C           -7.34086017493035       -0.38932509940487        0.53947334073062
C           -3.89036411604109       -0.06324799088571        0.76088483300518
C           -2.68219485724737       -0.68532894919043        0.54699109359013
C           -1.14586899676049       -3.57655120254989       -1.07822780225343
N           -0.00129584598036       -4.23800415179242       -1.24858380667123
C            1.14377200639527       -3.57733421562865       -1.07838350613684
C            1.23150413705830       -2.24457159145549       -0.73445590822085
C            2.51808088298633       -1.61705673797236       -0.48991139403007
C            3.63241052861028       -1.91723594349064       -1.28796896221946
C            4.84306573003136       -1.29663044212494       -1.08081395046379
C            4.98068335018932       -0.35658599212696       -0.05968601254688
N            6.21551923780387        0.31069117574353        0.13621419332810
C            6.31289453033361        1.67912491732903       -0.07771920579856
C            5.23418365079811        2.44338490360002       -0.52147603094739
C            5.37134116463735        3.80494197014001       -0.71997214272925
C            6.58556636066805        4.43219853680632       -0.48944097670244
C            7.67593067783315        3.68650798041641       -0.07458521888992
C            7.54799622062766        2.32129853842167        0.12498348300289
O            8.66863782270524        1.63782101430998        0.50683695690043
C            8.55905229805981        0.29017236322982        0.70577626141155
C            9.70212617881340       -0.38864136764699        1.09637030524441
C            9.65139440628971       -1.75079141480023        1.33975246668974
C            8.44980952344928       -2.42877970684942        1.20780215113381
C            7.30491580826613       -1.75957272431308        0.81618661151545
C            7.34105983347905       -0.39351835860565        0.53849817408333
C            3.89076928101634       -0.06616703691793        0.76086290247831
C            2.68221821370182       -0.68752897087326        0.54707443348433
H           -3.52660876699856       -2.61780201012445       -2.10040029268427
H           -5.68650119210929       -1.51220613420991       -1.72001284369832
H           -4.28627867503048        1.96765655780781       -0.71306221113744
H           -4.51911922134101        4.37711797006958       -1.06104470353165
H           -6.68801093268580        5.49791288019024       -0.64453550465722
H           -8.63826092925289        4.14418366707096        0.09409735212656
H          -10.61676456719409        0.17640509078338        1.20679813001105
H          -10.54463895795875       -2.26916919795061        1.64280054439858
H           -8.39817320145083       -3.48146047249868        1.41720051663925
H           -6.37072310160911       -2.28622858413806        0.73094036730247
H           -4.00176124259343        0.64732448404738        1.56692408172413
H           -1.84858538457464       -0.46240337996405        1.19601084320734
H           -2.03870995730127       -4.18189746435582       -1.17269137339185
H            2.03619843134232       -4.18327707144808       -1.17294991647996
H            3.52488602846743       -2.61951064243652       -2.10121919937524
H            5.68545043187190       -1.51508708391251       -1.72111974974167
H            4.28705310617978        1.96471575845758       -0.71306602196701
H            4.52022623429614        4.37438761276077       -1.05920680550143
H            6.68905291317366        5.49470843091604       -0.64107478084567
H            8.63895350952507        4.14026860265348        0.09719900579135
H           10.61684560918074        0.17144471594948        1.20706885839180
H           10.54451567617026       -2.27453194074563        1.64078106258249
H            8.39805140914139       -3.48651725850225        1.41353799262485
H            6.37080120059702       -2.29056472514775        0.72802046325144
H            4.00276694575687        0.64406349171380        1.56711933466685
H            1.84889277397612       -0.46440044065540        1.19638682232395
