74
 energy: -123.011461122706 gnorm: 0.000038904022 xtb: 6.7.1 (edcfbbe)
N           -0.00896423664887        1.04801644056217       -0.53704379861731
C           -0.00416007292559       -0.11609077321837       -0.56849907627291
C           -0.00103233605973       -1.49270827037765       -0.63258196502268
C           -1.23262006499092       -2.22915924606001       -0.75377721616806
C           -2.51909049225234       -1.60217987985862       -0.50648011129267
C           -3.63762190468827       -1.90919903611647       -1.29588293819455
C           -4.84964677652114       -1.29356526185540       -1.08142801088808
C           -4.98409493396104       -0.35153619189016       -0.06181225551329
N           -6.22156565423057        0.30754619279157        0.14507577365831
C           -6.32994291385828        1.67523941369910       -0.06777069765353
C           -5.26267525050650        2.44498392051566       -0.52937269429893
C           -5.41037545852385        3.80566879049835       -0.72625467998395
C           -6.62408934859699        4.42648373126164       -0.47627046242106
C           -7.70353986779976        3.67521047613718       -0.04333193742775
C           -7.56506625140307        2.31080354579092        0.15462468849914
O           -8.67541735817361        1.62150397209014        0.55547342879480
C           -8.55539348853388        0.27448648692359        0.75253989770333
C           -9.68825803392523       -0.41016420593477        1.16229621644878
C           -9.62651433856016       -1.77203709621451        1.40461448780788
C           -8.42402639291167       -2.44394691797769        1.25169848465616
C           -7.28923686849106       -1.76883468398225        0.84121952218302
C           -7.33682617017738       -0.40285842241305        0.56492804730161
C           -3.88895277795194       -0.05221889162834        0.74848613283371
C           -2.67928662226500       -0.66892119437292        0.52769466431856
C           -1.14524243975256       -3.56431265574800       -1.08805409679290
N            0.00014001374669       -4.22577921061361       -1.25427623333098
C            1.14433958202442       -3.56363944126830       -1.08671382914668
C            1.23180145104989       -2.22805604092817       -0.75264670765504
C            2.51780139531876       -1.60078170896794       -0.50604067161832
C            3.64016787907996       -1.91882548965088       -1.28606713091827
C            4.85238821991439       -1.30368216127290       -1.07197051118379
C            4.98306557235299       -0.34928478994051       -0.06347434066747
N            6.22156775867305        0.30952614257853        0.14154731333151
C            6.34023498062015        1.66975920083634       -0.10828623982499
C            5.28155946019929        2.43208898735846       -0.60072750322642
C            5.43980035175961        3.78541606934748       -0.83641645605555
C            6.65553350501261        4.40557224956859       -0.59469235996506
C            7.72612655210030        3.66106456888042       -0.12912451437944
C            7.57710909169504        2.30405027680827        0.10799597607838
O            8.67859247174751        1.62018683510627        0.54153025649083
C            8.54790265247638        0.28018683027137        0.77648116095345
C            9.67134686661419       -0.39935207525756        1.21924689018742
C            9.59812365007280       -1.75367232521132        1.49827028640036
C            8.39388007742517       -2.42302854514890        1.34784716701289
C            7.26833953417576       -1.75301780740219        0.90482307658087
C            7.32754871371255       -0.39515674909456        0.59328334488337
C            3.88432026786905       -0.03758980857054        0.73696509202067
C            2.67487452337540       -0.65537234283681        0.51787976976058
H           -3.53297069606454       -2.61363934912142       -2.10763147820253
H           -5.69595312122753       -1.51825609306443       -1.71432715391152
H           -4.31623722458056        1.97116376811407       -0.73590765546368
H           -4.56809471258717        4.37958974149671       -1.07968607208992
H           -6.73573116349890        5.48837377263258       -0.62649239027176
H           -8.66602100368764        4.12390304885464        0.14408658722724
H          -10.60372663099364        0.14537179154451        1.28867346797069
H          -10.51172812872055       -2.30035941230458        1.72062692397025
H           -8.36348003406252       -3.50148794856270        1.45603530898178
H           -6.35415897851754       -2.29520755755423        0.73723168926491
H           -3.99796804016125        0.66055921751343        1.55290088641198
H           -1.84210727529438       -0.43960781025212        1.16983315929286
H           -2.03751085045181       -4.17132491603526       -1.17675032807788
H            2.03682043161846       -4.17046766478617       -1.17485583866742
H            3.53875026062794       -2.63189202241510       -2.09064259311336
H            5.70213748817625       -1.53847850960879       -1.69656872414491
H            4.33381065589982        1.95784429313119       -0.80019677049020
H            4.60439344115537        4.35409919442840       -1.21380719759776
H            6.77543847322668        5.46174242034868       -0.77567218320936
H            8.68952797928857        4.10945851574775        0.05424965904873
H           10.58870995405333        0.15399154538026        1.34142880956153
H           10.47604463465400       -2.27802468093376        1.84019169253364
H            8.32479464009980       -3.47441983679805        1.57940919002939
H            6.33147776956420       -2.27649083756496        0.80195942192814
H            3.99024703062287        0.68538258389174        1.53268663677630
H            1.83519056121557       -0.41727034105756        1.15348356470591
