  94
       -148.21793248
 C          5.6815533035        0.3785160879        3.1536086431
 C          5.2189747981        0.4924435507        1.6870894254
 C          5.9709499923        1.6406755752        0.9886783966
 C          5.5469042905       -0.8021074109        0.9738249659
 C          6.8685675091       -1.2082500987        0.8513089350
 C          7.2166837054       -2.3753577990        0.1963928646
 C          6.2264871547       -3.1672101886       -0.3659039132
 C          4.9069476860       -2.7916336381       -0.2598285074
 C          4.5488114652       -1.6162211422        0.4158164750
 N          3.2186963541       -1.2776510666        0.5215131957
 C          2.2347698186       -2.1193363012       -0.0757232899
 C          1.7621350269       -3.2382755262        0.6221588170
 C          0.7722364974       -4.0306172457        0.0400771601
 C          0.2417242675       -3.7034004491       -1.1863915969
 C          0.7289313858       -2.5886064974       -1.8800641178
 S         -0.1938309187       -1.9239382819       -3.2404001943
 O          0.6807487214       -1.1715423359       -4.1055915395
 O         -1.0132070077       -2.9612044878       -3.8126321866
 C         -1.1795053089       -0.8023324325       -2.2920895612
 C         -2.1913160140       -1.3219164172       -1.4782042256
 C         -2.7437425582       -0.5267222813       -0.4932120562
 N         -3.7621947630       -1.0390744426        0.3237195241
 C         -5.0009610072       -0.4731806409        0.5317661168
 C         -5.5414673432        0.6850580785       -0.0062928084
 C         -6.8358962714        1.0211121668        0.3480947147
 C         -7.5800131773        0.2200968721        1.2107416236
 C         -7.0558262596       -0.9497552082        1.7318950357
 C         -5.7593991735       -1.3074099852        1.3898255196
 C         -4.9232054966       -2.4325896918        1.7046558929
 C         -5.0950682084       -3.5674853450        2.4845835860
 C         -4.0484906618       -4.4675823409        2.5817353693
 C         -2.8398048179       -4.2407538799        1.9278491818
 C         -2.6436981968       -3.1177309201        1.1433351360
 C         -3.6996146419       -2.2259168169        1.0210738889
 C         -2.2796870272        0.7817111230       -0.2806452306
 C         -1.2683047311        1.2981829999       -1.1121386047
 N         -0.7910896875        2.5935678658       -0.8881626405
 C          0.5402830663        2.9671287663       -0.8490536011
 C          1.6830996117        2.2250472345       -1.1045006235
 C          2.9103472870        2.8517231691       -0.9768304957
 C          3.0087321913        4.1838168752       -0.5868653911
 C          1.8764022155        4.9280964584       -0.3124391132
 C          0.6335570777        4.3222797733       -0.4449164011
 C         -0.7092978029        4.7871150846       -0.2544982440
 C         -1.2525067092        6.0140009353        0.1043514102
 C         -2.6291414075        6.1419049012        0.1492570567
 C         -3.4591515442        5.0733436282       -0.1777015031
 C         -2.9379081605        3.8406384247       -0.5352066655
 C         -1.5592874672        3.6919172761       -0.5475876517
 C         -0.7307738983        0.5113558529       -2.1160768084
 C          1.7368094863       -1.8019773514       -1.3212884077
 C          2.8015122797       -0.1248629860        1.1507548639
 C          1.4294888448        0.1450584457        1.2600562996
 C          0.9851939067        1.3021689229        1.8580494813
 C          1.8997283727        2.2157913742        2.3588991841
 C          3.2517721178        1.9409769043        2.2769048415
 C          3.7317020305        0.7783246035        1.6894746020
 H          5.1335383860       -0.4159240082        3.6564693369
 H          6.7422483607        0.1499242380        3.2064740034
 H          5.5033112674        1.3090863390        3.6847493794
 H          5.6838301206        2.6029265341        1.4017683251
 H          7.0445845627        1.5257851442        1.1065294359
 H          5.7432961801        1.6418841870       -0.0744067145
 H          7.6531372728       -0.6009320537        1.2753726574
 H          8.2539749715       -2.6624663328        0.1204689944
 H          6.4848000420       -4.0756780511       -0.8875599037
 H          4.1348293589       -3.4015586624       -0.7008206325
 H          2.1645577395       -3.4716077305        1.5948684151
 H          0.4152540082       -4.9011559240        0.5698981329
 H         -0.5350698496       -4.2914675353       -1.6477940283
 H         -2.5459148914       -2.3232439989       -1.6600254593
 H         -4.9766803021        1.2912593751       -0.6968360819
 H         -7.2799025598        1.9176761615       -0.0574977835
 H         -8.5870909384        0.5142005629        1.4659307700
 H         -7.6430702567       -1.5766293740        2.3853755739
 H         -6.0254084122       -3.7408324937        3.0035571249
 H         -4.1649909383       -5.3582425077        3.1810037714
 H         -2.0375125449       -4.9545484183        2.0372888115
 H         -1.7019482344       -2.9426629204        0.6450639705
 H         -2.6626271835        1.3591667973        0.5445244999
 H          1.6266623521        1.1880519051       -1.3874787830
 H          3.8078063443        2.2923173579       -1.1904607998
 H          3.9841074868        4.6388987112       -0.4989104270
 H          1.9507074970        5.9600222477       -0.0048894905
 H         -0.6100900102        6.8503112256        0.3339603424
 H         -3.0701817924        7.0876128517        0.4268106531
 H         -4.5300322995        5.2077022828       -0.1594312406
 H         -3.5906303031        3.0306919143       -0.8171025740
 H         -0.0017988714        0.8932921879       -2.8108486525
 H          2.1104216443       -0.9580976787       -1.8792138867
 H          0.7153682211       -0.5607424378        0.8657417156
 H         -0.0743629884        1.4915044051        1.9343071723
 H          1.5613604708        3.1321554610        2.8166495607
 H          3.9477586960        2.6540862612        2.6908269734
