  138
       -191.10766066
 C         11.4330727646        6.9405758725        2.0838923440
 C          9.9311525702        6.8660522817        2.3941680051
 C          9.2418628192        8.0401022163        1.6938636168
 C          9.7048800931        7.0104392058        3.9057092304
 C          9.3987991587        5.5165685305        1.9391717273
 C          8.3881206330        5.3762648308        0.9960401157
 C          7.9397384511        4.1283982709        0.6025166878
 C          8.4897414411        2.9669907457        1.1329811259
 C          8.0342205368        1.6394970628        0.6971607718
 C          8.9751860159        0.6268896811        0.4647691720
 C          8.6068401310       -0.6349897355        0.0475913080
 C          7.2550348071       -0.8929489252       -0.1268789823
 C          6.2903026906        0.1185996573        0.0831756639
 C          6.6843131390        1.3825352566        0.4947906834
 C          5.0150947073       -0.4654457802       -0.2337090732
 C          3.7180580952        0.0201380885       -0.2142937393
 C          2.6758355503       -0.8261140100       -0.5800361284
 C          1.2867206513       -0.3751571479       -0.6058999281
 C          0.9033337066        0.9720384169       -0.6379043541
 N         -0.3559527788        1.3500128617       -0.6268063775
 C         -1.3071158211        0.4084632282       -0.6050860645
 C         -2.6975643215        0.8549656484       -0.5781809714
 C         -2.9795597797        2.1882955804       -0.9206857864
 C         -4.2646654185        2.6803979337       -0.9499223962
 C         -5.3023235489        1.8125719699       -0.6318305873
 C         -5.0357924322        0.4777974106       -0.2438804301
 C         -3.7359028968        0.0007517005       -0.2201583364
 C         -6.3072821562       -0.1162971614        0.0677703353
 C         -6.6899810537       -1.3815540087        0.4846072880
 C         -8.0389637633       -1.6553358703        0.6720707829
 C         -8.4746720153       -2.9848365126        1.1217409608
 C         -7.7741592231       -3.6746037970        2.1051571580
 C         -8.1880713737       -4.9213556298        2.5374388842
 C         -9.3151546859       -5.5337588913        2.0032408378
 C         -9.8098783657       -6.9001510265        2.4502037392
 C        -11.2288614153       -6.7551657814        3.0181620408
 C         -9.8277005460       -7.8479809121        1.2426054991
 C         -8.9242852585       -7.5244131869        3.5319148158
 C        -10.0100705885       -4.8408106920        1.0144586537
 C         -9.6040976202       -3.5951282091        0.5822934760
 C         -8.9887513901       -0.6547705342        0.4244706310
 C         -8.6301701736        0.6126849265        0.0145183417
 C         -7.2799443748        0.8861939089       -0.1489514041
 N         -6.6577812323        2.0452701083       -0.5688270548
 C         -7.3005818076        3.2501711614       -0.8880287632
 C         -7.0279331835        3.9009046237       -2.0842592675
 C         -7.6607539849        5.0913525115       -2.3928878901
 C         -8.5900114972        5.6628818877       -1.5318066558
 C         -9.3149253359        6.9630710504       -1.8396544588
 C        -10.8227029756        6.6845693745       -1.9126643673
 C         -8.8768390315        7.5817891384       -3.1695403247
 C         -9.0257222124        7.9771316366       -0.7239639578
 C         -8.8575867679        4.9932665747       -0.3395881761
 C         -8.2237233853        3.8120025505       -0.0124778282
 C         -0.9236520822       -0.9382798373       -0.6545790948
 N          0.3353421303       -1.3161703610       -0.6439133624
 C          2.9507078403       -2.1590778081       -0.9302968689
 C          4.2323504816       -2.6597459103       -0.9558786789
 C          5.2735014039       -1.8008962921       -0.6255450708
 N          6.6258442160       -2.0453577328       -0.5534734379
 C          7.2653596034       -3.2497574092       -0.8817959461
 C          8.1725255519       -3.8292866643       -0.0044793329
 C          8.8164367359       -5.0063021527       -0.3409854536
 C          8.5710818793       -5.6464033618       -1.5499228066
 C          9.2579211564       -6.9398535658       -1.9573167767
 C         10.2530146229       -7.4364517159       -0.9051034064
 C         10.0243044198       -6.7087595079       -3.2674871881
 C          8.1929809574       -8.0264947910       -2.1614711524
 C          7.6488304520       -5.0580161913       -2.4130762250
 C          7.0075199715       -3.8783337469       -2.0953350694
 C          9.4979295766        3.1024704827        2.0839181909
 C          9.9368367155        4.3496308725        2.4773488883
 H         11.9856572312        6.1669405302        2.6096768536
 H         11.6027415921        6.8145085560        1.0164437176
 H         11.8310529865        7.9074485813        2.3852147725
 H          9.3924308809        7.9964728692        0.6175843685
 H          8.1750795375        8.0505893056        1.9051273440
 H          9.6645537620        8.9759487469        2.0544140927
 H         10.2254435331        6.2345713758        4.4601771067
 H          8.6436968261        6.9391240594        4.1352517594
 H         10.0685701544        7.9768442497        4.2488981398
 H          7.9338038181        6.2439155208        0.5453831446
 H          7.1654967196        4.0559749581       -0.1479729774
 H         10.0235711669        0.8532516867        0.5917151191
 H          9.3512371800       -1.3912264745       -0.1512375683
 H          5.9484796517        2.1524030531        0.6719260571
 H          3.5308382458        1.0339584583        0.1037329112
 H          1.6272445881        1.7740982385       -0.6926035361
 H         -2.1465667016        2.8281065811       -1.1654001536
 H         -4.4571846171        3.7118843308       -1.2035576613
 H         -3.5438690325       -1.0136631957        0.0929561250
 H         -5.9493043192       -2.1520193672        0.6373441216
 H         -6.9034010815       -3.2201019478        2.5558474029
 H         -7.6119517293       -5.4080871080        3.3077955372
 H        -11.9173010948       -6.3710450927        2.2704660471
 H        -11.2268680689       -6.0698521103        3.8634157198
 H        -11.5979098785       -7.7210556724        3.3572181692
 H         -8.8283086072       -7.9390893652        0.8217347611
 H        -10.1661334934       -8.8365062099        1.5468274918
 H        -10.4930893159       -7.4860030008        0.4636482440
 H         -8.9033768698       -6.9058802927        4.4262601850
 H         -9.3215849372       -8.4993335170        3.8075632684
 H         -7.9079488906       -7.6658019161        3.1717482244
 H        -10.8897011546       -5.2777424169        0.5651140549
 H        -10.1589138533       -3.0959626519       -0.1992449729
 H        -10.0337352735       -0.8804577293        0.5775660429
 H         -9.3814025633        1.3630474330       -0.1807448703
 H         -6.3270445799        3.4649756237       -2.7806752212
 H         -7.4182865094        5.5630851690       -3.3307836798
 H        -11.2000895364        6.2960124716       -0.9709699271
 H        -11.3617432265        7.6006827212       -2.1438674245
 H        -11.0328440676        5.9546309751       -2.6916087760
 H         -7.8135188823        7.8094729323       -3.1630310931
 H         -9.0955098492        6.9180033053       -4.0026992915
 H         -9.4181258396        8.5116275556       -3.3315028865
 H         -7.9551773242        8.1536552257       -0.6442622151
 H         -9.5161364467        8.9231315623       -0.9428300437
 H         -9.3852953085        7.6240015621        0.2382940586
 H         -9.5707489589        5.4004322598        0.3609649670
 H         -8.4309422970        3.3260234815        0.9293252502
 H         -1.6474355922       -1.7394249383       -0.7225324616
 H          2.1145693270       -2.7914984818       -1.1832016631
 H          4.4201496770       -3.6905535134       -1.2159001326
 H          8.3646699062       -3.3613800515        0.9497301370
 H          9.5141398020       -5.4205174788        0.3681227192
 H          9.7541284576       -7.6481250028        0.0376916349
 H         10.7170533645       -8.3573105574       -1.2523055663
 H         11.0416409331       -6.7067317859       -0.7368112749
 H         10.7608423699       -5.9184132980       -3.1380402514
 H         10.5426707546       -7.6184373016       -3.5628389559
 H          9.3558414629       -6.4221920907       -4.0743814184
 H          7.4930490401       -7.7532292249       -2.9460459564
 H          7.6318148966       -8.1803712632       -1.2422062108
 H          8.6655235561       -8.9662703015       -2.4388053504
 H          7.4264118960       -5.5196719305       -3.3630983899
 H          6.3146400022       -3.4302723306       -2.7920332701
 H          9.9294708147        2.2192378164        2.5329350977
 H         10.7175203554        4.4075189850        3.2215566592
