138
 energy: -191.039338769163 gnorm: 0.000078743146 xtb: 6.7.1 (edcfbbe)
C           11.70804712722459        6.97531479977195       -0.76042905990866
C           10.22882672962112        7.02442412352895       -0.35229578183623
C            9.48981425317853        7.92390118088597       -1.34680897766255
C           10.09555545765379        7.64653082362255        1.04501827967033
C            9.67607437762298        5.60853663766843       -0.31870537920515
C            8.61066662398590        5.18987753664808       -1.10649647172170
C            8.13571877714215        3.89279098734813       -1.04295228735719
C            8.71117364567655        2.95604405121855       -0.19089805775459
C            8.20407131339612        1.57910702862504       -0.12687352882607
C            9.09644815520606        0.50370773772419       -0.02334880790768
C            8.66488554010553       -0.80586502374000        0.02987826681385
C            7.29903496785389       -1.04562295323135       -0.02471437084738
C            6.38019462858409        0.02720394420378       -0.09908964366734
C            6.83567712806068        1.33302472285592       -0.15857125469114
C            5.06569746448499       -0.55853291898966       -0.07917536766484
C            3.79469751788332       -0.02065378705163       -0.13386484243422
C            2.68600118973259       -0.87797427285008       -0.11251151395796
C            1.33326705776396       -0.40781254606889       -0.14890530472349
C            0.94409448527919        0.93360312241119        0.01061901011842
N           -0.29190987441584        1.31305975093559        0.06105847179810
C           -1.32179157671009        0.41762022422882       -0.05433303915113
C           -2.67584089522117        0.88579686297276       -0.04111322535942
C           -2.89859167169820        2.28274293889144        0.01026745264437
C           -4.15789275482107        2.82780267863069        0.06152083315365
C           -5.24855107158404        1.96404863925449        0.06288855935206
C           -5.05584893619362        0.56487252929106       -0.02581434330544
C           -3.78393000073424        0.02831068831908       -0.07404631843768
C           -6.36912379524362       -0.02320788468661       -0.05006497582551
C           -6.82272500174699       -1.33002526576514       -0.10573149545547
C           -8.19108168185207       -1.57706231141336       -0.09118374956409
C           -8.69937536912628       -2.95346499217744       -0.15542509086734
C           -8.07685213223488       -3.98331685675345        0.54201336677234
C           -8.55744722717655       -5.27866283325940        0.48606082462817
C           -9.67623716824745       -5.60226636006842       -0.27192196336693
C          -10.23931353075239       -7.01151811209076       -0.36321245245975
C           -9.44558028984929       -8.02025124656487        0.47146971650590
C          -11.68794582100175       -7.00569638077436        0.14533298074917
C          -10.20445005461281       -7.47057297574042       -1.82786397782855
C          -10.29369821768798       -4.56810291131187       -0.97216766525876
C           -9.82160703051585       -3.27307945164356       -0.91597049909791
C           -9.08573519784047       -0.50206734383300       -0.00020677526984
C           -8.65582650372473        0.80736036026926        0.06310375655917
C           -7.28973116478084        1.04832845222110        0.01859893697265
N           -6.60018185047969        2.24094705140678        0.08626006043158
C           -7.17560334505183        3.51424749165370        0.18379826482945
C           -8.17980064300947        3.90679925765624       -0.69252198955305
C           -8.75189364307916        5.16130346165939       -0.58467436048178
C           -8.33947320453012        6.06531362203608        0.38718313835287
C           -8.94095398523203        7.45326936776298        0.53762427803697
C           -9.56219887662586        7.57929506251396        1.93605974059078
C          -10.03273480197020        7.73882229467835       -0.49705170922950
C           -7.83214781079597        8.50090019113870        0.36443470983764
C           -7.32711793731927        5.65833920831842        1.25432462019936
C           -6.75354052182321        4.40697264578192        1.16424380854080
C           -0.93216563233869       -0.92301209414214       -0.21812827261328
N            0.30381410673058       -1.30253926001969       -0.27047698530722
C            2.90648489527410       -2.27526967985511       -0.06248625035984
C            4.16502789061931       -2.82157969459858       -0.01101644457816
C            5.25610943440198       -1.95826634559786        0.00674709063283
N            6.60695089220232       -2.23740886067188        0.03815904699301
C            7.17613976326811       -3.51213727324712        0.14917671261099
C            6.73247286606778       -4.40043655219179        1.12425736583487
C            7.29747208374149       -5.65469724271289        1.22711361067759
C            8.32272399342495       -6.06901862774774        0.37890205182600
C            8.91470586058551       -7.45940022819919        0.54382293808628
C            9.50761038350970       -7.58547836860890        1.95452073382576
C           10.02549486760170       -7.75201254160660       -0.46837644945204
C            7.80464438929056       -8.50224375067016        0.35082836723233
C            8.75609416815724       -5.16977183400181       -0.58835875597747
C            8.19262016105609       -3.91259114410857       -0.70937326286566
C            9.78076321747329        3.37053685815115        0.59901128889114
C           10.24699446148011        4.66737036780126        0.53533778413395
H           12.29650353571272        6.40141649884284       -0.04997899423498
H           11.81217544357581        6.51394153127783       -1.74041727509678
H           12.11796557634255        7.98219863562813       -0.80723241669543
H            9.57485526534929        7.53917920065454       -2.36054332173923
H            8.43778872953726        8.01408540223216       -1.08615430668641
H            9.92670128286121        8.92051531501102       -1.32821566070293
H           10.65532354002112        7.08180270252624        1.78537773338929
H            9.05110727764517        7.66552728287817        1.34964761990700
H           10.47234991770367        8.66732373409891        1.03878790814082
H            8.13163862167732        5.87251063525315       -1.78977349099146
H            7.31657364318757        3.59719171207945       -1.68295088859510
H           10.15688718182383        0.70748214140445       -0.00315090651567
H            9.37253640401686       -1.61608003506856        0.12118486066958
H            6.13463060920358        2.15296118057444       -0.20140728973567
H            3.67247017164064        1.04912827494699       -0.20138680219441
H            1.69433524079059        1.69645760486673        0.15795461353789
H           -2.03180305865964        2.92541826125598        0.01543097076071
H           -4.29371872979664        3.89850024245678        0.09258004616138
H           -3.66210378153127       -1.04163608180025       -0.13863869594737
H           -6.12088750815268       -2.14720361310048       -0.17771063258739
H           -7.21553982378256       -3.76496593938645        1.15710004614848
H           -8.04029251573859       -6.03633068481900        1.05247831639817
H           -9.45999343434913       -7.75321117557134        1.52569822505256
H           -8.41390886229595       -8.08278036532374        0.13297487802383
H           -9.89270826207868       -9.00718403185916        0.36898296247068
H          -12.31660181964133       -6.35482455489583       -0.45594924201960
H          -12.10324476484290       -8.01071959688573        0.10673302896491
H          -11.72298706303697       -6.65664359287542        1.17539862428564
H           -9.18235178768983       -7.45876759304704       -2.20096972055042
H          -10.59169940434595       -8.48391282837131       -1.91282480267592
H          -10.80475916200753       -6.82278288257485       -2.46063254003591
H          -11.16326063792054       -4.77103573004133       -1.57989351808627
H          -10.31690012540509       -2.50053808629879       -1.48669507923283
H          -10.14456038955103       -0.70956786167870        0.04850048050283
H           -9.36392643735709        1.61663824247329        0.15999121891654
H           -8.50213471733132        3.23094875481668       -1.47077556650991
H           -9.52714239332712        5.42427499593040       -1.28549524762508
H           -8.81610926170034        7.45052951531286        2.71516948659058
H          -10.01484634657877        8.56110191990396        2.05728135601026
H          -10.33331702491303        6.82422497123952        2.07451957791238
H           -9.63728912386800        7.68561173044947       -1.50877035297596
H          -10.85903316236435        7.03860711233629       -0.39851130921330
H          -10.42395888240684        8.74233568958695       -0.34247482412743
H           -7.37074214682791        8.40141831336920       -0.61592561845186
H           -8.24737741519351        9.50275286452797        0.45042415349379
H           -7.05800502043428        8.38846199066375        1.11826960551928
H           -6.97770794289021        6.32500485622870        2.02809912717737
H           -5.98666391595201        4.10792407566818        1.86323662855017
H           -1.68218117104115       -1.68733478512981       -0.35883206169336
H            2.03901005907101       -2.91696230699198       -0.07618846744438
H            4.30122937271829       -3.89269726307568        0.00147922477295
H            5.95542038518298       -4.09552891974757        1.80934630690227
H            6.93059683099821       -6.31777879920682        1.99586164309178
H            8.74723334417855       -7.45029120789698        2.71857452407331
H            9.95188536774362       -8.56963198239055        2.08704591523291
H           10.28039441594203       -6.83465027613071        2.10618231504139
H           10.85195876307925       -7.05406137684663       -0.35608457365767
H           10.41036814191191       -8.75621749830596       -0.30275494112005
H            9.65011411576056       -7.70107933845131       -1.48781491833428
H            7.36279025083957       -8.40239647244526       -0.63846303680249
H            7.01657082803729       -8.38492945832925        1.08933801305665
H            8.21353687752939       -9.50582546296351        0.44648828322326
H            9.54135144400274       -5.43889191963916       -1.27557169532456
H            8.53095301570815       -3.24139113248099       -1.48481343969076
H           10.23739322928506        2.67386694951872        1.28744304853522
H           11.07408669618634        4.94664429533208        1.17138867985106
