138
 energy: -191.107375475405 gnorm: 0.000059262030 xtb: 6.7.1 (edcfbbe)
C            7.26279844609070       -8.03288438084534        2.45050993005057
C            6.95958183482523       -7.69355678926998        0.98419975489563
C            5.55425125586448       -8.18999498729270        0.61578828685831
C            7.97170740454949       -8.43287337290628        0.10482398479308
C            7.01559786684109       -6.18513352835873        0.80240652598908
C            6.15172100434773       -5.37195196519139        1.53275803640358
C            6.16261850240722       -3.99906861954635        1.39749674641306
C            7.04805341765520       -3.37410122831164        0.52301697013833
C            7.05979707443620       -1.91245259465584        0.37169353571306
C            8.27757743332885       -1.22662372731159        0.26452116737556
C            8.33793120786700        0.14361549975401        0.11498869044677
C            7.14250947627198        0.84550839695058        0.05745894347329
C            5.90449771303175        0.17612132306702        0.18681960945217
C            5.86746145547583       -1.20048214809759        0.34174931222558
C            4.88682608492525        1.18919817400334        0.12719604453278
C            3.50370543736092        1.14506261165756        0.17676437974100
C            2.78767328467566        2.33288484411518        0.07109206951876
C            1.32753455233105        2.35660451820654        0.10832187468203
C            0.52389700331145        1.24343824068505       -0.16924816648969
N           -0.78875030095910        1.29387955186877       -0.14089482208552
C           -1.38245385215889        2.45606628894215        0.16343324038335
C           -2.84395981580607        2.46323933912903        0.18093148074287
C           -3.58238487344932        3.64794822548925        0.33148865036439
C           -4.96098348942159        3.65383734907817        0.33088301617605
C           -5.62384892191084        2.44445976538079        0.16776182768442
C           -4.89775599149759        1.23596021009311        0.03891811238233
C           -3.51577832949666        1.24996354126505        0.04146746474256
C           -5.87407126578239        0.18602834906051       -0.06678146028386
C           -5.77781431022432       -1.18654527660486       -0.22904529349650
C           -6.94041481572336       -1.94028163371155       -0.33165342770902
C           -6.86612302832997       -3.39769104941154       -0.50506219000972
C           -5.93436744313405       -4.15579968515270        0.19560119006766
C           -5.86002829947115       -5.52710074640370        0.03339012320667
C           -6.70869424214893       -6.19859260504972       -0.83819289766716
C           -6.66010897007627       -7.70314954573527       -1.05165280245036
C           -5.58390083923982       -8.38582165807235       -0.20315169187541
C           -8.02032712019672       -8.30696181157372       -0.67449958487522
C           -6.35616259125972       -7.98921840790031       -2.52917029781299
C           -7.63859483741196       -5.43415566698762       -1.53940291156856
C           -7.72045275280833       -4.06635911386805       -1.37796836729967
C           -8.18632681119888       -1.30045729252014       -0.27910131419962
C           -8.30501707321035        0.06427822118952       -0.11284563231487
C           -7.14050750230370        0.80862664824239        0.00700466381770
N           -6.97294559756497        2.17288593282221        0.14910724126354
C           -8.00405144800857        3.11937945562798        0.23986097269790
C           -8.00913009554330        4.23935869067035       -0.58142671255890
C           -9.02685441298440        5.17126397707955       -0.48732492909683
C          -10.07254118057673        5.01396309132803        0.41456736320478
C          -11.21414731749404        6.00975377790475        0.54192397374804
C          -11.24321136799387        6.55846874832201        1.97551991257389
C          -12.53657198458963        5.29429916854784        0.23136423751584
C          -11.07478640752698        7.19357817189279       -0.41891286638359
C          -10.05441353699037        3.88273452336921        1.22806727747141
C           -9.03990115529324        2.95040945364150        1.15248444890086
C           -0.57681528662771        3.57025123036724        0.43270769238367
N            0.73735246097930        3.52086336318702        0.40331050299077
C            3.47379261664595        3.54860647236880       -0.08686695218932
C            4.84783175451303        3.61164779878399       -0.14433297456729
C            5.56032513838312        2.42475580500190       -0.02369636407675
N            6.91848331795750        2.20237581695686       -0.06687136519712
C            7.90686346084644        3.18525415365083       -0.22462010247053
C            8.88941493084284        3.04812695573913       -1.19648759029043
C            9.86326855468647        4.01850005296957       -1.34849959738294
C            9.88441737275047        5.15546722105385       -0.54948021380814
C           10.93220600968075        6.24794271544336       -0.68996145617307
C           10.23105323992033        7.57349835970561       -1.01913095476394
C           11.94477421893262        5.95543972522275       -1.80048210595539
C           11.69852869662178        6.37910601971221        0.63394383540517
C            8.88961361699228        5.27885161338669        0.41846470417036
C            7.91799314500271        4.31377839887103        0.58815263770073
C            7.91537455823181       -4.18085237294876       -0.20521225389253
C            7.89673563407582       -5.55702755659508       -0.06920969753908
H            8.24956212615010       -7.66536731854616        2.72495098296343
H            6.53448458916176       -7.58389150142252        3.12006789155112
H            7.24214683130830       -9.11075931639458        2.59812544446624
H            4.79656778255402       -7.74544680695018        1.25501027313840
H            5.32335596348847       -7.93240751659720       -0.41591879086971
H            5.49832562063070       -9.27140376560060        0.72277492810165
H            8.98992857535395       -8.13541198537717        0.34494240174788
H            7.78419754253761       -8.24547155364884       -0.94999152134523
H            7.88599000327023       -9.50427061362662        0.27575202396242
H            5.45208187095144       -5.81328400302379        2.22721407211737
H            5.48933871790403       -3.39952430467490        1.99329621022115
H            9.19765355874680       -1.78898808438347        0.32560739058373
H            9.28867035108665        0.65215811538048        0.05819458072331
H            4.92114632516793       -1.71398224783170        0.42015319181136
H            3.00260662250139        0.19929604405328        0.31234370306907
H            0.94506181970797        0.28584512881954       -0.44532103929573
H           -3.06822752546887        4.58929709534719        0.44536331027047
H           -5.50695385399689        4.57605003004245        0.46198423894289
H           -2.94486142987444        0.34151655486192       -0.06168088757030
H           -4.80956098985864       -1.65764314918811       -0.30206786023560
H           -5.26921950462472       -3.66852969695248        0.89410135764580
H           -5.12260823846616       -6.06621497403320        0.60593074675654
H           -5.76735955030575       -8.23406243065472        0.85809581781777
H           -4.59367733906652       -8.01100061228111       -0.45158007047479
H           -5.59550753803601       -9.45687040378452       -0.39600375769045
H           -8.81800259614961       -7.90347366779386       -1.29200891774058
H           -8.00097856619286       -9.38694978087736       -0.80607249961128
H           -8.25213139899851       -8.08974002097780        0.36626907825219
H           -5.40372895588048       -7.54405815878944       -2.80963916575698
H           -6.29964549545899       -9.06243771657094       -2.69969934410611
H           -7.12611822955331       -7.58177434104765       -3.17843743824001
H           -8.31662175143395       -5.91010152947101       -2.23252442421733
H           -8.44225815977822       -3.50482002606821       -1.95375987888379
H           -9.08221666112921       -1.89895237357423       -0.35461393042414
H           -9.27631635616549        0.53505765458904       -0.08703991133922
H           -7.21957155456008        4.37233994063953       -1.30622433856531
H           -8.99157864557708        6.02507848384760       -1.14379887132825
H          -10.29888425607628        7.04478517112838        2.21132105374966
H          -12.04289634367613        7.28854229996838        2.08023597694010
H          -11.40902260288300        5.76704578335348        2.70100366911623
H          -12.51430269008372        4.88371804435416       -0.77605398945148
H          -12.72049631518978        4.48030831077511        0.92699360856887
H          -13.36609045457968        5.99473292392769        0.30025405101330
H          -11.07853080532429        6.86084462218888       -1.45430005951640
H          -11.91494035338600        7.87131118133007       -0.28194110837130
H          -10.16067559220330        7.75001898585843       -0.22514540896199
H          -10.84349283236695        3.72091339868669        1.94668977298193
H           -9.03807537136375        2.09320896665139        1.80933526683270
H           -0.99038590150476        4.53613528830034        0.68889055527725
H            2.88500623996641        4.44843944737298       -0.17035200739118
H            5.35326569583604        4.55430645890517       -0.29040113771830
H            8.88116663987278        2.18427483476042       -1.84465008363789
H           10.60606189062949        3.87228001141182       -2.11537528816431
H            9.54583330189426        7.86748002546793       -0.22903705686315
H           10.96692657765123        8.36510407629305       -1.14295931232851
H            9.66554579231721        7.48023815124309       -1.94402425597951
H           11.45409251376482        5.87896006213839       -2.76803645472625
H           12.66700835346219        6.76748905393708       -1.85435685365235
H           12.48977167713054        5.03549287374482       -1.60185746667498
H           12.17957839994240        5.43602883467825        0.88514506931452
H           11.03640026937931        6.65165965013639        1.45094539017382
H           12.46569776314291        7.14558184378896        0.54766073820624
H            8.86909121322395        6.14255383654234        1.06558307804650
H            7.17071393482443        4.42337563592574        1.35995389084990
H            8.60186924242045       -3.72810511330637       -0.90650017675370
H            8.58621913902360       -6.13466983447188       -0.66358889329395
