138
 energy: -191.107908923669 gnorm: 0.000040793961 xtb: 6.7.1 (edcfbbe)
C           11.30642011574310        7.00634326995815        2.11110141564592
C            9.80889537171401        6.88003855855511        2.42526925807509
C            9.08074496411660        8.04670170531241        1.75229813739168
C            9.58478223299886        6.98715143941292        3.94032698158373
C            9.31511406304104        5.52465808815074        1.94504721960003
C            8.31121485083936        5.37414024711421        0.99622402157634
C            7.89238547445052        4.12198752738139        0.58490946760788
C            8.46492716463799        2.96562543124211        1.10311057552748
C            8.02555340716656        1.63534954293318        0.65954345707762
C            8.97181662764147        0.62661045625098        0.43169579568683
C            8.61104498736109       -0.63727396030442        0.01277589638322
C            7.26143890847898       -0.90175516126224       -0.16979977318491
C            6.29237200728605        0.10680760969433        0.03400883863028
C            6.67807455591505        1.37166463745558        0.44915001241347
C            5.02090584515095       -0.48045398210202       -0.28982360192830
C            3.72345056397187        0.00350623515942       -0.27860356244320
C            2.68453742265740       -0.84473312437752       -0.64864228564079
C            1.29621886373189       -0.39245142329524       -0.68199514496733
C            0.91726814633122        0.95569507618801       -0.72895429645681
N           -0.34054156146142        1.33783550504339       -0.71331031190564
C           -1.29449148318186        0.39974069216662       -0.67548676350719
C           -2.68271932649112        0.85168832349860       -0.63506952690393
C           -2.96441389291416        2.18380300984815       -0.98265697433322
C           -4.24767509929757        2.68147568601351       -0.99468997412143
C           -5.28357464185008        1.82079283647463       -0.65245332728861
C           -5.01667014119781        0.48702503191123       -0.26156241560808
C           -3.71886064715059        0.00401907949817       -0.25611184629983
C           -6.28526068213123       -0.09898986808834        0.07527418092640
C           -6.66649808665440       -1.36130126916903        0.50169026640150
C           -8.01327948963065       -1.62847292515313        0.71262574645376
C           -8.44471193099941       -2.95899147372933        1.16345794871805
C           -7.72962540572308       -3.65530306572710        2.13164927864835
C           -8.13396452205250       -4.90736996688235        2.55755434750371
C           -9.26533454514392       -5.51889430682418        2.03142318051526
C           -9.74565585980059       -6.89418187804511        2.46666559405144
C          -11.16519187776514       -6.77108945784018        3.03835800793992
C           -9.75505495347372       -7.82936878774410        1.24904357419477
C           -8.85186166096672       -7.51973041142611        3.54091566343385
C           -9.97608475349436       -4.81838251736556        1.05931798393732
C           -9.58024208421008       -3.56693410260481        0.63435404600214
C           -8.96231643359006       -0.62310664448092        0.48244651319001
C           -8.60485420599334        0.64197032548090        0.06369712388927
C           -7.25671285901875        0.90751990937160       -0.12780507306023
N           -6.63636516058180        2.06078791985402       -0.56586602963211
C           -7.27786132623847        3.26740847180678       -0.88231745610791
C           -7.03148983575244        3.90117133545809       -2.09327870383100
C           -7.66293954825242        5.09283088315156       -2.40018082004942
C           -8.56323172094144        5.68334705100938       -1.52133624863122
C           -9.28300815766944        6.98759238034935       -1.82445010531763
C          -10.79729228787728        6.73462416108543       -1.81909534992257
C           -8.90097681917945        7.56938609190580       -3.18812020719060
C           -8.92370355592043        8.02013777175353       -0.74654801006805
C           -8.80262144853801        5.03191412419932       -0.31300080105592
C           -8.17174152074172        3.84815682214713        0.01093997518211
C           -0.91584175481378       -0.94860026215411       -0.72046782139030
N            0.34202759041939       -1.33062935092712       -0.71111463342037
C            2.96325389661130       -2.17811340974077       -0.99377871443485
C            4.24604312290893       -2.67679765817627       -1.01153278810567
C            5.28447624629110       -1.81574255014052       -0.67804942365921
N            6.63755229408802       -2.05641639490020       -0.59873707131674
C            7.27710767615563       -3.26493472268122       -0.91166765227565
C            8.17570194664252       -3.83999469231124       -0.02267286500196
C            8.81069372315408       -5.02717545669366       -0.34006032428208
C            8.56512737099077       -5.68193460984705       -1.54109912533397
C            9.23810103140043       -6.98977497820715       -1.92528314504880
C           10.20766096445634       -7.49222554452456       -0.85220098199367
C           10.02879940477816       -6.78261216285753       -3.22497774740923
C            8.16031599034514       -8.06241662544077       -2.13688296542023
C            7.65600488446726       -5.09459511511170       -2.41879075131429
C            7.02327395553179       -3.90542581171201       -2.11989269477710
C            9.47106840763052        3.11133274765571        2.05469642743176
C            9.88164174993049        4.36293026945360        2.46491529821432
H           11.88375770236652        6.23749671502669        2.61704987560069
H           11.47500507295129        6.90967469281358        1.04042085730537
H           11.67681863880756        7.97754944694016        2.43292526088704
H            9.23014728739963        8.03232695713771        0.67508812287730
H            8.01464842127376        8.01785049308221        1.96542724480755
H            9.47383134483797        8.98740660190536        2.13308444409817
H           10.13362227087585        6.21879396228768        4.47770459135215
H            8.52756544143128        6.87576487886117        4.17244898946120
H            9.91733981205205        7.95840842564663        4.30099946799883
H            7.83798614420526        6.23710146633403        0.55618243517682
H            7.12192507192203        4.04287155624082       -0.16874897910290
H           10.01867463312582        0.85673986499913        0.56446142788721
H            9.36007896989980       -1.39039637146775       -0.18069880736982
H            5.93695838885248        2.13707751093474        0.62326784157924
H            3.53302018353441        1.01746651815521        0.03703770027103
H            1.64364451938075        1.75433331550601       -0.79858743019454
H           -2.13266182324525        2.81827864856474       -1.24482715976200
H           -4.44022870559495        3.71180989097550       -1.25311005202708
H           -3.52611414419130       -1.00909788140442        0.06079184705687
H           -5.92696964423874       -2.13511713171966        0.64239669494371
H           -6.85402413701836       -3.20251825252696        2.57469530383281
H           -7.54614892487112       -5.39955642608121        3.31551816575262
H          -11.85987769039319       -6.38863135293362        2.29569394592037
H          -11.16972523561207       -6.09358866050220        3.88986697002249
H          -11.52214402904716       -7.74429353308857        3.36922476873351
H           -8.75580853111109       -7.90364755923745        0.82478609158401
H          -10.08047452765071       -8.82514037451827        1.54326381649175
H          -10.42660557522368       -7.46678829534163        0.47576975355382
H           -8.83096055213901       -6.90621955158388        4.43872876276161
H           -9.24227530508214       -8.49867808705069        3.81236092665440
H           -7.83610784337919       -7.65318644535251        3.17589538100995
H          -10.85941326638240       -5.25455390108755        0.61648686003364
H          -10.14680439520955       -3.06189913181400       -0.13494467742851
H          -10.00539305583949       -0.84322782746755        0.65561131420817
H           -9.35546871172564        1.39651103546939       -0.11760511236619
H           -6.35226415092375        3.45099905987465       -2.80205914316798
H           -7.44248276506554        5.55054412867493       -3.35046061873589
H          -11.13723017697924        6.38016221386607       -0.85002097883019
H          -11.33098212530486        7.65364735086891       -2.05151633998828
H          -11.05619678539223        5.98687897780364       -2.56596990299624
H           -7.83704949573079        7.78959013740980       -3.23589893625428
H           -9.16150235668244        6.88599335148393       -3.99302242076642
H           -9.44307063336606        8.49893795663363       -3.34939522706188
H           -7.84841193568069        8.18504417851414       -0.72738513460360
H           -9.41444893133936        8.96770006601229       -0.95812599686351
H           -9.23501556383857        7.68952905342667        0.24034753885246
H           -9.49071205446090        5.45569529116712        0.40266730730417
H           -8.35806451288191        3.37486072906093        0.96358433617174
H           -1.64262256865006       -1.74743409845340       -0.78344860264317
H            2.12954413725623       -2.81278111002703       -1.24918542516781
H            4.43627772339380       -3.70810592285866       -1.26778505011404
H            8.36692603813865       -3.36143757780421        0.92642517944168
H            9.50061810218705       -5.43829330589301        0.37841763122285
H            9.69052973061820       -7.68208829107710        0.08548692880706
H           10.65861041634599       -8.42625893853756       -1.18107923627097
H           11.00804334005312       -6.77607901633051       -0.68093596265434
H           10.77771752226582       -6.00494520107035       -3.08979844353771
H           10.53473852701741       -7.70382959562917       -3.50576127045272
H            9.37789407004178       -6.48960763149765       -4.04390884787487
H            7.47853174788089       -7.78791722064526       -2.93692315473063
H            7.58061528177908       -8.19773828340688       -1.22609656215961
H            8.62345387445078       -9.01218489718222       -2.39553167740133
H            7.43642829381369       -5.56544530285081       -3.36496094334141
H            6.33940276087885       -3.45980135742879       -2.82697252661130
H            9.92239032341042        2.23252822665065        2.49279419211440
H           10.66144285202627        4.42841776199834        3.20937891029830
