138
 energy: -191.038782342453 gnorm: 0.000065712456 xtb: 6.7.1 (edcfbbe)
C           11.35011433250263        7.16452198036838        1.90037946275235
C            9.86012988660007        7.01012523481959        2.23665601945357
C            9.10017613996026        8.16248535571049        1.57429817760084
C            9.65660158090849        7.11384066572166        3.75497484000098
C            9.38320810180526        5.64538947303592        1.76611062502457
C            8.36143743378786        5.47492271152399        0.83985414466585
C            7.95170883655975        4.21467833264395        0.44473097859698
C            8.55184911321714        3.06912585552704        0.95648198006739
C            8.11107571971404        1.72943759646408        0.54670965509575
C            9.05367167053174        0.71726833921602        0.32003060933074
C            8.68480368582019       -0.56093437306215       -0.04547053556052
C            7.33066521400477       -0.83862160512174       -0.17111081408976
C            6.36501905641105        0.17698654771099        0.02098776158004
C            6.75819774111170        1.45501447343735        0.37980501094141
C            5.08268768485468       -0.42601966581526       -0.22908521193684
C            3.78934336491005        0.05846611016222       -0.18688688618575
C            2.72437180237782       -0.81014873251977       -0.45541564992619
C            1.35332487715230       -0.38697051962146       -0.44692111248949
C            0.93192860708392        0.95071529021597       -0.47143808802427
N           -0.31563104283351        1.30294479320494       -0.47246433341929
C           -1.31852163273643        0.37167314245006       -0.44581392354160
C           -2.68919054686825        0.79603199931361       -0.45476478624839
C           -2.96679607491159        2.15240446872243       -0.74286787479790
C           -4.24759420097264        2.64575658337275       -0.79656229135921
C           -5.30002953323907        1.76842430274683       -0.55715688765687
C           -5.04756554215357        0.41797758275564       -0.21848615462448
C           -3.75489783088498       -0.06847436271492       -0.17595625864754
C           -6.33027127180672       -0.17892978823319        0.04471730774593
C           -6.72531676495709       -1.45119593701704        0.42137352325229
C           -8.07913853025192       -1.72318472630923        0.58598606921708
C           -8.52316475370247       -3.05743388341119        1.00999780455844
C           -7.82763489334667       -3.76558899639368        1.98451778801489
C           -8.24906970904698       -5.01546544324665        2.39933500953290
C           -9.37941179657566       -5.61383705357347        1.85598674287317
C           -9.88262206234525       -6.98281029631734        2.28502089172829
C          -11.30843470054056       -6.84066575287154        2.83653104552690
C           -9.88673564811233       -7.91953430519792        1.06866482204081
C           -9.01237721097963       -7.61805255120414        3.37288530519999
C          -10.06813800212846       -4.90397916415504        0.87469653913613
C           -9.65506111871306       -3.65454728519486        0.46043286099033
C           -9.02006351082867       -0.71240955500796        0.34720659741416
C           -8.64868981343746        0.56368435623181       -0.02329973920136
C           -7.29430002297812        0.83698010673797       -0.15454903690087
N           -6.65912564557254        2.00565354309931       -0.51917065795918
C           -7.28519753395966        3.22005866741463       -0.82649377908245
C           -6.96372293215774        3.90368199700797       -1.99284220428277
C           -7.58229094687957        5.10300366044575       -2.29456529307995
C           -8.54302474011656        5.65469100102493       -1.45510480121106
C           -9.25266198414110        6.96497887026861       -1.75571568293699
C          -10.76224324395301        6.70329078776541       -1.85527555929588
C           -8.79046952163735        7.59828310948103       -3.07077608342621
C           -8.97043938863564        7.95961672584768       -0.62073405021714
C           -8.85486149630611        4.95627832221516       -0.29012434445194
C           -8.23892282018292        3.76354954496730        0.02860471081725
C           -0.89724065124283       -0.96619253232618       -0.46064237106887
N            0.35040799141364       -1.31838881886151       -0.46292266909544
C            3.00367703434690       -2.16848133191730       -0.73223529493126
C            4.28531649773597       -2.65995012244216       -0.78552265714843
C            5.33697324048174       -1.77860477440707       -0.55748856451035
N            6.69694867609121       -2.01217742673231       -0.52246690842403
C            7.32427934908647       -3.22856816692354       -0.81887392472285
C            8.28260263246482       -3.76073463822341        0.03487789445206
C            8.90292565443147       -4.95881313904650       -0.26944359535250
C            8.58491991222545       -5.66840078039595       -1.42151411385618
C            9.24017218723831       -6.98970517238444       -1.78973415552161
C           10.28003856859140       -7.44010419961064       -0.76026446931026
C            9.94423124066511       -6.83833829860288       -3.14576255134492
C            8.15811127146185       -8.07478928718757       -1.88352001944617
C            7.61671812193504       -5.12457463217371       -2.26361616368758
C            6.99674411636564       -3.92592471946201       -1.97785397242276
C            9.58036412543430        3.23533614332011        1.88095976421467
C            9.98136059181192        4.49485775977980        2.27557348524582
H           11.94953433408308        6.40774249442882        2.39872936862744
H           11.50486734017202        7.06969770675426        0.82746849825146
H           11.70643098273637        8.14309355413796        2.21578073610720
H            9.23178628688967        8.14882707734552        0.49475985894153
H            8.03847173535749        8.11505263852301        1.80530408218296
H            9.48263383657897        9.11071857505867        1.94717880271010
H           10.22726447020158        6.35568731784466        4.28407684307660
H            8.60516193308770        6.98312291576447        4.00282377859668
H            9.97658510393659        8.09115660925833        4.11063810114416
H            7.86543262376291        6.32853683428314        0.40663714411736
H            7.16497705738727        4.12050843456331       -0.29017098890703
H           10.10336583565096        0.95417614512599        0.41277198272748
H            9.43144510598520       -1.31659835471419       -0.23821113143757
H            6.01966130303041        2.22360880169257        0.55108576458344
H            3.61457094631519        1.09067742823401        0.07429627880526
H            1.66474963818095        1.74312817848797       -0.50839045892328
H           -2.12770468024959        2.80640870884994       -0.92365327721275
H           -4.42825583948559        3.68969714297159       -1.00512056387379
H           -3.58102631667845       -1.09918580219019        0.09177040663459
H           -5.99080773175436       -2.22947146958127        0.56421770673697
H           -6.95539454387335       -3.32219661716941        2.44335505361579
H           -7.67674276512640       -5.51575033591743        3.16383883632881
H          -11.98830513940487       -6.45356717840509        2.08265266134114
H          -11.31671323051910       -6.15920476292550        3.68485725967906
H          -11.68126068812565       -7.80809959829840        3.16683340742547
H           -8.88227544061184       -8.00868914289170        0.65984997718172
H          -10.23078828605907       -8.91011479506812        1.35920384754953
H          -10.54116211159357       -7.54853365085668        0.28478664375748
H           -8.99655605088969       -7.00338423901296        4.27001488143148
H           -9.41917331651096       -8.59147614732576        3.64012928294108
H           -7.99323941065982       -7.76513498432551        3.02280180836044
H          -10.94867289816309       -5.33064060373142        0.41722519211053
H          -10.20586699268050       -3.14198957304475       -0.31526435673356
H          -10.06849125908625       -0.93568310770689        0.47901131843859
H           -9.39382675920588        1.32232345052392       -0.20986119053548
H           -6.23704318824264        3.48406176751761       -2.67268197951495
H           -7.30351595148950        5.59809390627697       -3.21020129010846
H          -11.15978961606961        6.31220332270341       -0.92290669664235
H          -11.28762772068473        7.62698401573177       -2.08822156211418
H          -10.96744982170575        5.98138473760045       -2.64314165073109
H           -7.72764653262793        7.82714541914707       -3.04321529018901
H           -8.99352010560265        6.94256854795922       -3.91433739979852
H           -9.32959134535978        8.52943693282559       -3.23291271205180
H           -7.89993197165499        8.13086245383097       -0.52838219519406
H           -9.45556379654804        8.91104365026786       -0.82800043879509
H           -9.33956046986106        7.59067764419271        0.33207179427219
H           -9.58985533982527        5.34982171537541        0.39562588543943
H           -8.48176410777664        3.25505330827977        0.94979475839742
H           -1.63022182035671       -1.75880873507951       -0.49008228730302
H            2.16534334150386       -2.82565909751525       -0.90488906370168
H            4.46692526892738       -3.70537006657175       -0.98565244815850
H            8.52996627922133       -3.24124413396491        0.94874535967278
H            9.63972847311243       -5.33506994683080        0.42112211923132
H            9.82551812021002       -7.58969448597436        0.21634945529838
H           10.71510517766379       -8.38623768838697       -1.07576238735663
H           11.08495997988396       -6.71396329919467       -0.67294675111685
H           10.69604327799986       -6.05349136657440       -3.09372555379017
H           10.43599339305586       -7.76980273126362       -3.41791469820995
H            9.24019089124774       -6.58351382796300       -3.93289733557428
H            7.42425834917180       -7.83859643008532       -2.64898354286781
H            7.63936287347092       -8.17166887028283       -0.93198114066286
H            8.60980033351790       -9.03341118487898       -2.12957343425691
H            7.33960921517169       -5.63836015391163       -3.17163059993689
H            6.26629796221249       -3.51487844441383       -2.65877406536317
H           10.05503910525230        2.36575837354622        2.31264893388826
H           10.77732004035254        4.57575968436064        3.00119916905433
