  56
        -91.85819228
 O          4.7128465961        1.9529525370        1.3102399628
 C          5.3522292504        1.3678854564        0.4655705674
 C          5.0026989643        1.5170493955       -1.0134500845
 C          3.9471927187        0.4987165761       -1.3315787066
 C          2.6316650456        0.6795592733       -0.9259279408
 C          1.7176606705       -0.3242105879       -1.2489116100
 C          0.3012550423       -0.2520388835       -0.8875241141
 C         -0.1438403178        0.5035369551        0.1970943890
 C         -1.4872985285        0.5621053111        0.5038314974
 C         -2.4181077512       -0.1241248385       -0.2737228302
 N         -3.7903770510       -0.0458611229        0.0319547626
 C         -4.5124433001       -1.1928636763        0.3759000521
 C         -3.9196449061       -2.4459175674        0.4687517647
 C         -4.6669440379       -3.5624055470        0.8117386270
 C         -6.0153785853       -3.4451038741        1.0800220205
 C         -6.6148915004       -2.1956698482        1.0276989851
 C         -5.8737098572       -1.0790525369        0.6885482809
 O         -6.5311660648        0.1257918748        0.6954414204
 C         -5.8071391626        1.2436633225        0.3657830693
 C         -6.4838018428        2.4492994707        0.3681137115
 C         -5.8315307914        3.6197353581        0.0104462112
 C         -4.5059334292        3.5689634401       -0.3693306395
 C         -3.8221567910        2.3627184354       -0.3703671332
 C         -4.4500363918        1.1868120909        0.0214009115
 C         -1.9771908966       -0.8887528421       -1.3525336066
 C         -0.6326222849       -0.9575784632       -1.6476109581
 N          2.1124097581       -1.3996982542       -1.9404972839
 C          3.3823464089       -1.4754648197       -2.2659271041
 N          4.3259498111       -0.5924912509       -1.9920546799
 C          6.4842865179        0.4792904969        0.8012606706
 C          7.1113606418        0.6635922999        2.0348830382
 C          8.1813512127       -0.1281312286        2.4016816845
 C          8.6258193813       -1.1256664632        1.5480922518
 C          7.9938824438       -1.3297524481        0.3315071189
 C          6.9324790679       -0.5300084896       -0.0507503828
 H          5.8738241814        1.3659410727       -1.6463637086
 H          4.5933738556        2.5180349626       -1.1574454953
 H          2.3412309498        1.5697266923       -0.3933873104
 H          0.5636658026        1.0221591927        0.8260228946
 H         -1.8271825765        1.1346393140        1.3542615891
 H         -2.8629614738       -2.5517397725        0.2802167744
 H         -4.1798662658       -4.5235872731        0.8694661948
 H         -6.6023205161       -4.3111269727        1.3420443492
 H         -7.6608430504       -2.0635950476        1.2536772251
 H         -7.5248973970        2.4489296926        0.6486869250
 H         -6.3663492229        4.5562325441        0.0194209758
 H         -3.9897113545        4.4667972278       -0.6725801984
 H         -2.7916281677        2.3362432759       -0.6878470737
 H         -2.6981076980       -1.4177341844       -1.9581854475
 H         -0.2801591656       -1.5451647205       -2.4806715547
 H          3.6914520826       -2.3549677583       -2.8173819552
 H          6.7456245268        1.4420352508        2.6880175397
 H          8.6678200760        0.0279537392        3.3530752696
 H          9.4620447902       -1.7471721649        1.8328905064
 H          8.3324564047       -2.1173709899       -0.3251770895
 H          6.4336803316       -0.7153225639       -0.9897963050
