72
 energy: -118.837697908526 gnorm: 0.000110199088 xtb: 6.7.1 (edcfbbe)
C            9.21389512098143       -2.97352629579174        1.98310593578109
C            7.83444143079926       -2.99608272954912        2.02018051031099
C            7.09893892977488       -2.01830182281764        1.36696142922027
C            7.73185125488535       -1.00595056564957        0.65596059291317
C            9.13306748391268       -0.97603472781427        0.64977640884045
C            9.86211458045329       -1.95324525212341        1.30124593416340
O            9.84763129217213        0.01740721042475        0.01984591107290
C            9.13124003030740        0.99883628211151       -0.62648796523561
C            9.85820277692439        1.98753592188025       -1.26280656918117
C            9.20827077976301        2.99655847780586       -1.95966339904893
C            7.82977849161093        2.99602438228160       -2.02751743437617
C            7.09636761008203        2.00677421389176       -1.38945702023472
C            7.73024844209987        1.00599345212413       -0.66306437231138
N            7.02140362071857       -0.00547648545561       -0.01110984280404
C            5.60848961986069       -0.00813025047021       -0.01512983420603
C            4.90386708062742        1.01337098447105        0.61600228386816
C            3.52378339309797        1.01336609165857        0.60662916346736
C            2.81594116952848       -0.01151328316747       -0.02220339374109
C            1.35428941470354       -0.01235175733511       -0.02496273224575
C            0.59555064402334        1.15686082837110       -0.14207828920860
N           -0.71996913689442        1.16171435727452       -0.13479426685305
C           -1.34689950297383       -0.01137900048053       -0.02251350461859
C           -2.80678336964621       -0.00972263958055       -0.01660665275302
C           -3.51414571041918       -1.20731639272883        0.10193268238262
C           -4.89300160636305       -1.20553597570167        0.11069574357286
C           -5.59282017815620       -0.00482645753669       -0.00017276055737
N           -7.00390427862756       -0.00167592415839        0.00942753102715
C           -7.72401123156398       -0.64680433299590       -0.99983274832508
C           -7.10159927120195       -1.26879193349681       -2.07570003040658
C           -7.84601903992504       -1.89748368724757       -3.06249728911008
C           -9.22488215284026       -1.90649878278127       -2.99845818685697
C           -9.86323013931184       -1.26204879023092       -1.94853910220227
C           -9.12498746372252       -0.63194906163865       -0.96378366927367
O           -9.83171054745918        0.01331836305796        0.02465216496783
C           -9.10772855467152        0.65039986890925        1.00585564429707
C           -9.82859130017250        1.28721818675247        1.99912844541546
C           -9.17211158975986        1.92418474955535        3.04240523298945
C           -7.79279107217640        1.90089400079986        3.09122093764516
C           -7.06581492708998        1.26518259642517        2.09596913913602
C           -7.70639213728416        0.65029445248670        1.02667920467030
C           -4.89008250230884        1.19334302386631       -0.12003877672697
C           -3.51132552091171        1.19028255205587       -0.12775118933198
N           -0.72067313300732       -1.18520928587632        0.08566292518929
C            0.59497736755470       -1.18130630960605        0.09035572141028
C            3.52937749391579       -1.03463790007330       -0.64736980121573
C            4.90967280127262       -1.03129034840940       -0.64987186078695
H            9.79182683756083       -3.73276020382782        2.48610661007905
H            7.31526681125080       -3.77276047884063        2.56066758411178
H            6.02172633030416       -2.03906883688611        1.41641048531162
H           10.93882408355884       -1.89518249086851        1.26705551646549
H           10.93470727628768        1.94758778426785       -1.20464966009868
H            9.78438780762769        3.76512184019915       -2.45043768620549
H            7.30988057578648        3.76334307510392       -2.58050744288592
H            6.02026510111854        2.00955956255988       -1.46231762505861
H            5.44559172279022        1.80307107145683        1.11525602065100
H            2.98796297697606        1.80009768852379        1.11624788391127
H            1.06689454261255        2.12493387842111       -0.26337213262236
H           -2.96305902477889       -2.12987364088462        0.19477187703862
H           -5.44004483349114       -2.13145622679733        0.21030094631196
H           -6.02560857691194       -1.25562118318745       -2.14685184693598
H           -7.33420716362717       -2.37692407883058       -3.88288029660789
H           -9.80960278916613       -2.39789864352204       -3.76011235896447
H          -10.93929444625281       -1.23176675005083       -1.87792902472047
H          -10.90561474912665        1.26824329819267        1.94022124026012
H           -9.74327197427921        2.42097369354002        3.81081987161769
H           -7.26703475230413        2.37453383031416        3.90612280674526
H           -5.98929043046637        1.24115926506166        2.15513550451487
H           -5.43508402375901        2.12117107415335       -0.21295746738971
H           -2.95810033635588        2.11087171633159       -0.22706231655536
H            1.06578272155188       -2.15000842819147        0.20866225645713
H            2.99801069302521       -1.82276237649118       -1.15951735251137
H            5.45572121311924       -1.81937876887039       -1.14692121822820
