72
 energy: -118.837498188295 gnorm: 0.000054687623 xtb: 6.7.1 (edcfbbe)
C            9.18156635363272       -3.47865062415536       -0.83104773156194
C            7.80266003445887       -3.50635754109445       -0.88322076912165
C            7.06714747936430       -2.36162463705669       -0.61443604213923
C            7.69875008189256       -1.17035276950950       -0.27772764227718
C            9.09998172314294       -1.14557297192497       -0.26114232835421
C            9.82918864436289       -2.28935800114667       -0.52785749995852
O            9.81522814656124        0.00063428149678        0.00035975665590
C            9.09950270806398        1.14656694801131        0.26175422837983
C            9.82822914821275        2.29062216391410        0.52862389652302
C            9.18010312357829        3.47966671968666        0.83171077049009
C            7.80117673904797        3.50685420749986        0.88362366994185
C            7.06614559257482        2.36184791873902        0.61468946623041
C            7.69825941998865        1.17081898347891        0.27808093050273
N            6.98812959657195        0.00010221243396        0.00011482778914
C            5.57549199610242       -0.00015313605601       -0.00003994001305
C            4.87319894282325       -0.77077474120094        0.92274688693918
C            3.49290157946621       -0.77094067225716        0.92029995732340
C            2.78188710064007       -0.00061138439038       -0.00028919426244
C            1.31994361211755       -0.00085443215566       -0.00044291772738
C            0.56082159032390        0.06414808805508       -1.17347374865333
N           -0.75479257704530        0.07136097742434       -1.17689798318110
C           -1.38147709012804       -0.00103674422993       -0.00062537957308
C           -2.84155698830346       -0.00097457094110       -0.00067034101525
C           -3.54720373333459        0.07555881910984       -1.20263497534496
C           -4.92614343928764        0.07610903477359       -1.20325069289416
C           -5.62680093941252       -0.00052367760055       -0.00063711090606
N           -7.03848968267885       -0.00012627919498       -0.00050298116204
C           -7.74886989413341        1.11186916055805       -0.46002413156887
C           -7.11588920760208        2.27498720561351       -0.88208411577679
C           -7.85108009440868        3.36310614064562       -1.32797916342525
C           -9.23031990928247        3.31257757171823       -1.35032745011402
C           -9.87892932887196        2.17022208320226       -0.90335738013643
C           -9.15007892169388        1.08410442526917       -0.45539476754518
O           -9.86563167035844        0.00123856759278        0.00142457321185
C           -9.15051477781697       -1.08239760694438        0.45708899286455
C           -9.87977869845107       -2.16788289971832        0.90591012131620
C           -9.23163015469089       -3.31091588329262        1.35181956886248
C           -7.85247199004750       -3.36278179438545        1.32749879956065
C           -7.11686585627383       -2.27529749296097        0.88074517728878
C           -7.74933324807387       -1.11149925922901        0.45979181701115
C           -4.92612480993219       -0.07747286990269        1.20194467053575
C           -3.54719958853034       -0.07736483304876        1.20131037337006
N           -0.75493822361813       -0.07343526538305        1.17572916680266
C            0.56066905982331       -0.06604637002112        1.17248475403803
C            3.49281660308735        0.76994445582597       -0.92075704758250
C            4.87311407667449        0.77024051925709       -0.92294909009523
H            9.75948574203851       -4.36653825653526       -1.03380569491255
H            7.28382107607502       -4.41846780445054       -1.13580130777200
H            5.99071870829890       -2.39417900662076       -0.67370256822501
H           10.90576552557489       -2.22699088351277       -0.49761921933965
H           10.90483486101662        2.22866037787182        0.49858473946588
H            9.75765007963611        4.36776870992669        1.03459077018084
H            7.28194465069982        4.41876334801265        1.13612016257171
H            5.98969360008711        2.39399847112614        0.67375571867732
H            5.41622980349621       -1.36744016559622        1.64075870076900
H            2.95996372838753       -1.38540474779001        1.63031971939092
H            1.03150105121801        0.09407547465838       -2.14898101186146
H           -2.99479751194951        0.12659827182120       -2.12765779327794
H           -5.47278507570617        0.12918695071795       -2.13323382427145
H           -6.03927300623916        2.33293552803148       -0.85599266958911
H           -7.33183585425894        4.25143292824973       -1.65377575300644
H           -9.80782523587384        4.15361463366976       -1.70045574109793
H          -10.95559768266486        2.10379008626079       -0.88907796267507
H          -10.95640254358949       -2.10041880256202        0.89316354552186
H           -9.80944770720134       -4.15143698373211        1.70266994266787
H           -7.33363344914242       -4.25165725275671        1.65244382839655
H           -6.04033877796033       -2.33423460234190        0.85314482702724
H           -5.47277232712952       -0.13040725636053        2.13193386586942
H           -2.99479111411739       -0.12857271688762        2.12632093023172
H            1.03121805217582       -0.09595585891494        2.14805543879766
H            2.95980112127416        1.38422443915739       -1.63087800347582
H            5.41607975733817        1.36708609205183       -1.64086062131929
