61
 energy: -90.882071942879 gnorm: 0.000048558534 xtb: 6.7.1 (edcfbbe)
C            3.96908298236176        1.12836068645829        2.54825088401970
C            3.21190566698298        1.23801685589316        1.26474908278323
C            1.83761265541847        1.33332402258752        1.25101920570445
C            1.12545769184396        1.47233178745745        0.04177559904426
N           -0.23939470224121        1.58192457520527        0.04508869919468
C           -1.02908011789505        1.58566225127855       -1.12291852267087
C           -0.84864130271436        2.52360572911930       -2.13269104973145
C           -1.66465182236119        2.49179781484695       -3.24955071251188
C           -2.66126426206033        1.53596846232865       -3.35297896649473
C           -2.86861762911631        0.62885382708735       -2.32588084169732
C           -2.07128552446683        0.65583054280539       -1.19345442911667
C           -2.21957744763542       -0.28823116118494       -0.01105541691820
C           -1.05240268057408       -1.27600087411529       -0.01910191200627
C           -0.58965258974318       -1.82173723888714        1.17279212284955
C            0.47144682234151       -2.70945011024914        1.17587093860400
C            1.08448492848193       -3.06751442757181       -0.01253577427359
C            0.62285343858035       -2.53710062372653       -1.20438023123963
C           -0.43990710940258       -1.65042909990336       -1.20860006412035
C           -3.56229085495618       -0.99478608353417       -0.04203892514450
C           -3.67580395120472       -2.37488953758963       -0.12670740019357
C           -4.92425718218567       -2.97588630801415       -0.15883214306313
C           -6.07303051177866       -2.20682314112350       -0.10768526842615
C           -5.96882687033179       -0.82718431224536       -0.02684947051026
C           -4.72414752591733       -0.22694657761706        0.00405639918691
C           -2.07635902811282        0.58767946739847        1.22446390000476
C           -2.87331606932310        0.49695053536870        2.35385286959120
C           -2.65728582370599        1.33591813256006        3.43567846177113
C           -1.64885221749237        2.28415600072527        3.39416870315948
C           -0.83308789212002        2.37848516193809        2.28095549637443
C           -1.02625017781031        1.51084193843446        1.21226680276653
C            1.84609401236422        1.46638990777577       -1.16991600420466
C            3.22117201378939        1.37942931351888       -1.18362446788819
C            3.98908312187948        1.43351682954426       -2.46432742752377
C            3.88315902805035        1.19327465889260        0.03633204328842
Br           5.11315240459882       -0.94589240836122       -0.08689753691389
H            4.66719751182208        1.95963328516307        2.64201335722593
H            4.55704826276502        0.21136508946467        2.54951235320439
H            3.29865415675690        1.12408435387777        3.40357262252033
H            1.30371456045478        1.27866777688454        2.18702947215124
H           -0.08945222776672        3.28413335256241       -2.03014691877356
H           -1.52238992733245        3.21740026099929       -4.03577532521562
H           -3.28924590575720        1.50159609288315       -4.23014388205465
H           -3.65267295416227       -0.10790549292459       -2.41020015490272
H           -1.06145671207594       -1.55347897376765        2.10687773900536
H            0.82321595682456       -3.12049241878454        2.11102350561526
H            1.91879836192704       -3.75335808071728       -0.00977781351891
H            1.09445434341656       -2.81163398651780       -2.13683407666622
H           -0.79272838113195       -1.25017756506025       -2.14790694808431
H           -2.78916110660517       -2.98958461321462       -0.16904979266893
H           -4.99474926051311       -4.05200072611793       -0.22460549374730
H           -7.04466919507531       -2.67810220775565       -0.13206816052946
H           -6.85980657495854       -0.21737038642926        0.01104916414685
H           -4.64818031710811        0.84969387671786        0.06352800794462
H           -3.66538972007265       -0.23506334678442        2.39285437202496
H           -3.28639279236338        1.25311689316716        4.30881421636270
H           -1.49787893976669        2.95566433563808        4.22547775437798
H           -0.06171901706052        3.13182816660535        2.22696582152879
H            1.32036920795560        1.51508857450870       -2.11062978260756
H            4.64208520983768        0.56536696587078       -2.53948892634835
H            4.62438852883804        2.31904439871204       -2.47804283219844
H            3.32414564187766        1.45820301920371       -3.32366499495351
