61
 energy: -90.877373079225 gnorm: 0.000082939806 xtb: 6.7.1 (edcfbbe)
C            4.03749662613694       -2.53248767552991        0.88294473692941
C            3.27343218761583       -1.25099449264296        0.98691796962788
C            1.91304963948428       -1.23386341289752        0.95146821683876
C            1.17182565915357       -0.00870723967600        1.05207365384061
N           -0.18316250289087       -0.01017860696985        1.16365587974549
C           -0.96554392570210        1.14248267682600        1.25705890080985
C           -0.66529658180841        2.17844364161160        2.15644095998552
C           -1.48716996982019        3.27789590419588        2.23580795831388
C           -2.61957171101011        3.36950379258012        1.42801651065535
C           -2.94808420354585        2.32104622244720        0.57180226713644
C           -2.15507504401266        1.19725310659340        0.49282967399194
C           -2.42374041267170        0.00257614913802       -0.40413842573109
C           -1.40575164481837        0.01137010279741       -1.54581296994861
C           -0.93937125639382       -1.18097497033757       -2.08631053700853
C           -0.00141307603485       -1.17376168741680       -3.10357699654645
C            0.48153100000348        0.02569584736493       -3.59822190731470
C            0.00872464409775        1.21811821956589       -3.07753203014064
C           -0.92927434757873        1.21118881919290       -2.06025619191472
C           -3.84987156996564        0.00812158515559       -0.91997266339258
C           -4.15364863562576        0.02771724266088       -2.27349553383839
C           -5.47265045344033        0.03324672368818       -2.69893029137814
C           -6.50484600073551        0.01928948759265       -1.77827118899606
C           -6.21125187353092        0.00046728644206       -0.42395545022377
C           -4.89597564505622       -0.00475819860575        0.00039567257740
C           -2.15449135750059       -1.20719522338477        0.47229215724892
C           -2.94610773672038       -2.33321975332323        0.53145953450514
C           -2.61723968877211       -3.39554124438490        1.37023997321690
C           -1.48592671058883       -3.31615612694638        2.18084115383594
C           -0.66502120385038       -2.21479062052840        2.12035672485941
C           -0.96524707678661       -1.16450490459966        1.23779375036178
C            1.91128689997236        1.21881336595689        0.96866902392440
C            3.27164539085661        1.23757168330373        1.00425098096561
C            4.03358400779906        2.52170453079172        0.91862400957750
C            3.96655609620113       -0.00689781407610        1.09870925804585
Br           5.86162059462895       -0.00580001204995        1.12716940376758
H            3.35823647308964       -3.37737701639635        0.80709480738296
H            4.67352405295471       -2.67055196616217        1.75804047711619
H            4.68391068100619       -2.52268721261180        0.00442810004244
H            1.37644211167815       -2.15740962045484        0.80889163527925
H            0.19182064305175        2.08163407539496        2.80588592105230
H           -1.25539323215145        4.07163634429277        2.93036144640473
H           -3.25186725783034        4.24224502829686        1.47546001802352
H           -3.83431070573122        2.39524690818563       -0.04086683762865
H           -1.31214961334808       -2.12244735903125       -1.70928306765341
H            0.35416448271528       -2.11006301190014       -3.50922416009128
H            1.21881263438594        0.03117598466043       -4.38779116019936
H            0.37226532597075        2.15997078959386       -3.46274857958318
H           -1.29418366918070        2.14742109458775       -1.66300343485490
H           -3.36037611242721        0.03879117215226       -3.00593417983795
H           -5.69063357298153        0.04840804529870       -3.75721845859589
H           -7.53239046018444        0.02341845297488       -2.11168718337807
H           -7.00981624542219       -0.00994989683890        0.30391226985440
H           -4.67184449273639       -0.01882801814409        1.05782131068948
H           -3.83173123848586       -2.39832832205684       -0.08312223571564
H           -3.24863511924833       -4.26963800489723        1.40237214958068
H           -1.25420421963171       -4.12088924575318        2.86263732497622
H            0.19111821700510       -2.12752077361559        2.77244466703937
H            1.37323091296555        2.14342696147987        0.83910257168788
H            3.35286825306362        3.36637436668753        0.85413820341806
H            4.68061827267436        2.52538872380175        0.04052533479333
H            4.66877313683965        2.64866310514554        1.79600823452718
