104
 energy: -159.619563262513 gnorm: 0.000119543350 xtb: 6.7.1 (edcfbbe)
C            8.94260611951703       -0.67342615020639       -0.68891735951412
C            7.49483449275667       -0.47380351608462       -0.34424809630320
C            6.72204338859701       -1.53336252327727        0.14142300464416
C            7.29404258765903       -2.86775073882494        0.40731760688168
C            8.36392047333728       -3.04120220640648        1.27990409491011
C            8.86380043637205       -4.30546606109538        1.53355121138122
C            8.30503538856026       -5.41210978361718        0.91641439912046
C            7.23492078367677       -5.24958954900774        0.05215477797662
C            6.72803304739530       -3.98740947338577       -0.19656006267960
C            5.36287745056313       -1.35896913971384        0.37478080530852
C            4.76304220783291       -0.13860476568687        0.12551785774896
N            3.36211346312062        0.02653391754947        0.34547895198411
C            2.97696846409947        0.96247840483706        1.29881329133338
O            3.81619502177027        1.59290237152061        1.92651171277111
C            1.54425426195061        1.12490089493955        1.49617247936762
C            1.08831322199510        2.03203493880617        2.47199198759393
C           -0.25685314517897        2.16604325724380        2.70162888313558
C           -1.18819295844338        1.44293673642148        1.95116917872615
C           -0.77658451482648        0.57097992459276        0.93881990602830
C           -1.67369964278417       -0.19769945580062        0.13454657176250
N           -3.05155263509102       -0.00431639182110        0.18092532651300
C           -3.58181590999793        1.28240494781158        0.15551853483458
C           -2.90666094385225        2.30723640438866       -0.51560481054751
C           -3.41085561328902        3.58734307792327       -0.51416350864554
C           -4.60486026000087        3.89270529930038        0.14365863485331
C           -5.13349247952674        5.26017419131847        0.14801825249797
C           -4.27554575913984        6.35121015428769        0.28231418312616
C           -4.77380733481649        7.64002317338018        0.29301641202459
C           -6.13475007219611        7.86268895658692        0.16183860310676
C           -6.99613299609231        6.78672218493428        0.02392441129261
C           -6.50180784974063        5.49630384738252        0.02111230967131
C           -5.27903951344933        2.86200493482710        0.80252669316212
C           -4.77817492561412        1.57963773232996        0.81650620008921
C           -3.88687088806380       -1.11327775193872        0.15702078308374
C           -3.49083266937821       -2.29070699777882        0.80877563775530
C           -4.29155181603287       -3.41229397889864        0.79348490385406
C           -5.50529443160148       -3.36607238854584        0.11837296977762
C           -5.90480426881886       -2.18835336328561       -0.54147966428277
C           -5.11061382965791       -1.07130210335022       -0.53047013025260
C           -7.24796108151772       -2.37929808169633       -1.20820921292274
C           -8.28731220320303       -1.41215014889371       -0.63248868230932
C           -7.14102510648228       -2.21011876513164       -2.72691120388371
C           -7.56593319637452       -3.81107943532691       -0.83904067219186
C           -8.67514362594398       -4.56096127675548       -1.16240180633394
C           -8.75135180736139       -5.87262059784683       -0.71113262654632
C           -7.73172199354451       -6.42353679208322        0.05156028674965
C           -6.61292167309858       -5.67857075426404        0.38201343738145
C           -6.53326634336252       -4.36799196198741       -0.06610023624099
C           -1.17067092662038       -1.17312891669808       -0.76675182953212
C            0.16703847505131       -1.35264349739177       -0.93381648938814
C            1.09073002805530       -0.57035622393269       -0.19142848702095
C            0.62287291064510        0.38154274570985        0.73729654144661
C            2.50994108655128       -0.77150354540622       -0.40951666800819
O            2.95585286458207       -1.57706857361811       -1.21878126387253
C            5.51787344852912        0.91949840303176       -0.34935501901427
C            6.87958934979877        0.76052335837120       -0.57244843838962
C            7.63519312749002        1.92466049425232       -1.07913832023831
C            8.70055615306257        2.45876239036590       -0.36187381792615
C            9.38004226747649        3.56596623742563       -0.83590399620685
C            9.00787729350570        4.15117726271323       -2.03453271595099
C            7.94486992429457        3.62969527722688       -2.75248955445678
C            7.25911021541305        2.52752339947855       -2.27536137219704
H            9.22657341650179       -0.03102234655430       -1.51992995359530
H            9.58423704921587       -0.42559075660449        0.15613170833598
H            9.13134887649294       -1.70984527687776       -0.95982600198977
H            8.79045287088260       -2.18228077679630        1.77636118316165
H            9.69194366748126       -4.42867711496844        2.21683080218212
H            8.69968715746955       -6.39862369262723        1.11205618672446
H            6.79305084977458       -6.11077873582263       -0.42819600523332
H            5.89477309392190       -3.85592829768071       -0.87146101441975
H            4.77451203485790       -2.18178071338952        0.75142360028450
H            1.82467323794378        2.59091861166122        3.02704128831381
H           -0.61467832285591        2.84347075617164        3.46284954996297
H           -2.23755607530945        1.56511905143231        2.17053774698473
H           -1.99413565424588        2.07912455245046       -1.04537088407121
H           -2.88894157684965        4.36203562776192       -1.05500807962446
H           -3.21561184439587        6.18333549403018        0.40477997856031
H           -4.09830689181038        8.47514842038261        0.40606399539664
H           -6.52252358500600        8.87033670127441        0.16733206303951
H           -8.05777146388639        6.95496573997076       -0.08329890632102
H           -7.17764350547164        4.66290328094165       -0.10523594648330
H           -6.18910791218377        3.08048522924273        1.34090584601191
H           -5.29027403623819        0.80193643867556        1.36440089634543
H           -2.55325337324457       -2.29669952414163        1.34422636838623
H           -3.98073616182954       -4.30817711118865        1.30826507528018
H           -5.39605162006476       -0.17368841221321       -1.05890888910257
H           -8.36137818436166       -1.53708598725768        0.44582944965862
H           -8.00574227063471       -0.38356561448319       -0.84635816682181
H           -9.26332873395946       -1.60411405179032       -1.07109922700206
H           -6.39852308121744       -2.89503692301924       -3.13069589037992
H           -8.09845201610484       -2.42058525862323       -3.19693474329894
H           -6.84797192842947       -1.19264805571168       -2.97492260691359
H           -9.47542849295355       -4.14428204980397       -1.75629941577304
H           -9.61539086220189       -6.47164654666666       -0.95784181276185
H           -7.81341148223005       -7.44577544746056        0.39029261445476
H           -5.81979648660333       -6.10800430162818        0.97535589727218
H           -1.87957994137697       -1.73037775600857       -1.36203115109086
H            0.56520766373280       -2.06527301836597       -1.63783418317420
H            5.05211964966127        1.87565254608156       -0.53409770639726
H            8.98191389389364        2.01338680809909        0.58074918450888
H           10.20274567981839        3.97571755929141       -0.26762534156723
H            9.54214393326673        5.01351377790206       -2.40608533539794
H            7.64836490091378        4.08493072502333       -3.68668416042684
H            6.43131027518838        2.11688032813860       -2.83577127423426
