104
 energy: -159.620220497614 gnorm: 0.000197337107 xtb: 6.7.1 (edcfbbe)
C            8.57227485401275        0.70515991927247       -0.56290981876653
C            7.11317229918511        0.56899249837189       -0.23582384081987
C            6.47834672169313       -0.67158846846476       -0.34661241819820
C            7.22328167755946       -1.89807712432317       -0.69795586350414
C            8.25949124148101       -2.36368417596540        0.10480535135087
C            8.92874298627501       -3.52938314725736       -0.21986334805141
C            8.57536994213738       -4.24292835167850       -1.35286825217129
C            7.54133325020553       -3.79010397434215       -2.15478538904378
C            6.86575356975092       -2.62877412677468       -1.82666086155655
C            5.10792871547657       -0.78074467318521       -0.14857980521035
C            4.36296462891745        0.33507004732731        0.19204857942303
N            2.95428903635910        0.22065450523268        0.38870562696379
C            2.52120828921822       -0.64678212304312        1.38651925132082
O            3.32753818863675       -1.25849447010256        2.07322326179184
C            1.08084236118353       -0.76273413362074        1.55655811651764
C            0.57878233528832       -1.60716447947011        2.56490217892096
C           -0.77429674689511       -1.69013497322973        2.77278887252836
C           -1.66836739636720       -0.97905743469996        1.96842835321966
C           -1.21100476182709       -0.17252615698280        0.92182804859486
C           -2.06915041242362        0.57330321300121        0.05459580559297
N           -3.45156641624382        0.40295669793745        0.06453254809528
C           -4.26245873990332        1.52778553001845       -0.04270468513651
C           -3.87639844649477        2.72461724736382        0.57136071991302
C           -4.66045207539687        3.84950415018376        0.45670408290707
C           -5.85486078059185        3.82557196565603       -0.26795122732104
C           -6.68954278773134        5.02486202798298       -0.38404761509668
C           -6.10907127041921        6.28258335939331       -0.54559344347149
C           -6.89753599709522        7.41167240627431       -0.65863888517151
C           -8.27775223382630        7.30679090843227       -0.60436527104254
C           -8.86555962819803        6.06323755668518       -0.44022609026941
C           -8.08012829047952        4.93129621951870       -0.33496950510808
C           -6.23150978903381        2.62816074562115       -0.88203563375080
C           -5.45167054233992        1.49880177962352       -0.77922170572430
C           -3.99767068481399       -0.87328813361654        0.09799623027750
C           -5.23639855737094       -1.10639434315822        0.71211470722755
C           -5.75805096305170       -2.38053159702432        0.79109508507216
C           -5.03173569117493       -3.44205412856267        0.26540363346264
C           -3.78642169038689       -3.21206442122504       -0.34898441485282
C           -3.27334388301129       -1.94595188998317       -0.44678416195047
C           -3.17389427663754       -4.51027821664840       -0.81889260976369
C           -2.95585659847437       -4.51370873025418       -2.33448324012251
C           -1.85444849942816       -4.77286282121676       -0.08426122043168
C           -4.23439307115910       -5.50771640306303       -0.41027567205592
C           -4.24724324213215       -6.87466881005498       -0.58013842765708
C           -5.34065571902782       -7.59683290983304       -0.11904234725640
C           -6.40402268995790       -6.95930951387404        0.50371572074562
C           -6.40052749742949       -5.58657667453969        0.68098273843473
C           -5.31053615152678       -4.86154996865040        0.22153117879361
C           -1.51978170985256        1.48829248415776       -0.88145007231063
C           -0.17392357966450        1.62252631784842       -1.02677359069937
C            0.71135245777857        0.85242353255118       -0.22716277700443
C            0.19698238077498       -0.03354109834347        0.74121135404373
C            2.13944417859213        0.99533101533277       -0.43075681831899
O            2.62270662253496        1.73306925824595       -1.28223781265283
C            4.98295923049168        1.56340526392953        0.32960851577871
C            6.35031006787813        1.68797138809151        0.11338530959013
C            6.94157120936435        3.03362341867971        0.24685161994266
C            7.99691034829453        3.28412953766409        1.11839963081073
C            8.51561967349516        4.56009621123017        1.24264242732682
C            7.99043889763282        5.60127466742925        0.49571157760951
C            6.93439819001193        5.36267119641108       -0.36825152022451
C            6.40858756901440        4.08950275338233       -0.48796833807313
H            9.18894428316182        0.54336580895040        0.32068811876902
H            8.86381584066012       -0.03073377064336       -1.30948888492229
H            8.78689868086472        1.70160492971798       -0.94274996747195
H            8.52548701300678       -1.81747067626120        0.99751609299161
H            9.72855945287109       -3.88441457311554        0.41410866925651
H            9.10179365185688       -5.15114631863694       -1.60807012160828
H            7.25962082568505       -4.34519969393121       -3.03819606398597
H            6.06062528455737       -2.27200125440390       -2.45311788844265
H            4.62789724820535       -1.74260549039428       -0.24547312286753
H            1.28671050862921       -2.15895163145219        3.16237174524153
H           -1.16683941282733       -2.31798088023249        3.55901566062277
H           -2.72497472429449       -1.05891191473063        2.17198969320896
H           -2.96710682263987        2.74716428199504        1.15339406951747
H           -4.36199828695866        4.75642410143242        0.96020261677631
H           -5.03432318904913        6.36967452167146       -0.60850730784376
H           -6.43418136861702        8.37820477864057       -0.79164541937895
H           -8.89263296105511        8.19017453911598       -0.68974932692121
H           -9.94117016091674        5.97630100703464       -0.39225051846891
H           -8.54492732938076        3.96730947957787       -0.18747637530374
H           -7.13235799244072        2.59654238074233       -1.47625782750127
H           -5.73897954813677        0.59098365233251       -1.28905979078422
H           -5.76661202378315       -0.27680100389215        1.15646161503977
H           -6.70832183648585       -2.54794963933420        1.27456798671293
H           -2.33037744624778       -1.75597429239591       -0.93614719288436
H           -3.89341769552420       -4.31999661298274       -2.85161667430396
H           -2.23774772151697       -3.74658008457742       -2.61370019076685
H           -2.57487511613120       -5.47937064469907       -2.65710391367039
H           -2.01484558623999       -4.76956489523717        0.99168768220764
H           -1.44857921952167       -5.73921798214951       -0.37260713123985
H           -1.12648240700966       -4.00185230070099       -0.32501302669273
H           -3.42545509833113       -7.38300254578063       -1.06253497609090
H           -5.36353568047667       -8.66895773656706       -0.24681222658206
H           -7.24293397530627       -7.54239545040800        0.85410135290935
H           -7.22809571763561       -5.09132097714883        1.16651955166702
H           -2.19910201012942        2.03347172206474       -1.52081379346050
H            0.25891038580127        2.28767229829041       -1.75633879506863
H            4.40399772037630        2.43203651852018        0.60353909101694
H            8.39705713863221        2.47817281100634        1.71545074788308
H            9.33183941203858        4.74403035191295        1.92660474798254
H            8.39974120184899        6.59661689848747        0.59066099085639
H            6.51856197150982        6.17304878855667       -0.94961479354179
H            5.58636285180070        3.89841305636439       -1.16212830098876
