104
 energy: -159.684543499371 gnorm: 0.000021727870 xtb: 6.7.1 (edcfbbe)
C            8.98179841217799       -0.66581668883096       -0.71450855198611
C            7.53541636681325       -0.46922094448900       -0.36312981975503
C            6.77761784189473       -1.52265928324802        0.15618031408037
C            7.36494009998820       -2.84665192902498        0.44366475107390
C            8.43498879301001       -2.99289152884420        1.32046959395869
C            8.95072928447381       -4.24686689196596        1.59324968634096
C            8.40772587296786       -5.36932167832112        0.99094473177930
C            7.33758712850257       -5.23344838576683        0.12234964232111
C            6.81485153944442       -3.98151182334806       -0.14541917530758
C            5.41978603935613       -1.35406632568056        0.40128538229270
C            4.80840409560438       -0.14574955306311        0.12544793366252
N            3.40349717166351        0.01328479276870        0.35630977829890
C            3.02547176272325        0.94846828929038        1.30707326755649
O            3.85549752685924        1.57994003734163        1.92817039884233
C            1.57655780938879        1.11112281799303        1.51704737531951
C            1.13288507639176        2.00760485152843        2.46687606179349
C           -0.23258615199270        2.14922003503246        2.70893326374442
C           -1.14799789938499        1.43500919019060        1.97696053492649
C           -0.73802904800989        0.54052255287011        0.96935133431192
C           -1.64900609611212       -0.22909101332205        0.18073685679041
N           -3.02068369882062       -0.03064861335529        0.27428012074000
C           -3.56178722771468        1.26111599265117        0.24826880122229
C           -2.93204698246049        2.27895903838275       -0.46760004603792
C           -3.46334491823067        3.55100676444798       -0.48118738999586
C           -4.64545560225522        3.84467785688229        0.19689994879371
C           -5.21035829534223        5.20023481142986        0.17377020709104
C           -4.38185481496466        6.31565789714991        0.27779668259295
C           -4.91342747541050        7.59139518484854        0.25860482501298
C           -6.28005063803110        7.77514493631460        0.13013213364015
C           -7.11284571467525        6.67384277978886        0.02374085017176
C           -6.58390246886171        5.39704817343224        0.04793812984378
C           -5.27756096898772        2.81779538062745        0.89664354755347
C           -4.74427362952581        1.54671580772157        0.93079376646700
C           -3.88198886992868       -1.13882352862603        0.20858597190703
C           -3.56269363625173       -2.29819230525346        0.91662482323813
C           -4.39820478016676       -3.39866104465156        0.88852668844974
C           -5.57063429573066       -3.33298196032592        0.15236458089631
C           -5.89328471719040       -2.16833026961048       -0.56061839745273
C           -5.05749177469240       -1.07727213829842       -0.54370340367948
C           -7.21113150694875       -2.32917397875051       -1.28315629669278
C           -8.23668984814250       -1.30798825825277       -0.78094853097358
C           -7.03125734636709       -2.20728504969894       -2.79924930321421
C           -7.60025255469370       -3.73687033757302       -0.88954805376335
C           -8.72124992580098       -4.45486028380324       -1.24484367679151
C           -8.87049330705152       -5.74731311720866       -0.75898073301310
C           -7.91105535618966       -6.31004461666174        0.06834197811300
C           -6.78062044600897       -5.59576638750297        0.43025168595693
C           -6.62918342733010       -4.30611088440349       -0.05208773061885
C           -1.15529223686005       -1.19671249389275       -0.68272850856506
C            0.20749637253998       -1.38410043250669       -0.85083715450260
C            1.11834090399031       -0.60876010644417       -0.15557256996229
C            0.65469701988260        0.34976415832881        0.76842255154184
C            2.55238008221807       -0.79773809301933       -0.38841250800962
O            2.99706849022911       -1.59698972104225       -1.18765868853662
C            5.54650010775689        0.90661988580228       -0.38390066924597
C            6.90788273929566        0.75406728109410       -0.61554711244516
C            7.64936135280699        1.91319048742263       -1.15357940349866
C            8.71707360216528        2.46904620093930       -0.45655709612539
C            9.38391680492275        3.57154663527771       -0.95862096489599
C            8.99642429294721        4.13001755409244       -2.16513841926363
C            7.93099414770046        3.58666375699931       -2.86296054000432
C            7.25771180061484        2.48918321866969       -2.35791549781499
H            9.25626811543621       -0.03623745399330       -1.55825430481835
H            9.62761005825307       -0.40072507868472        0.12187420170691
H            9.17417915213581       -1.70573549022163       -0.96884343687281
H            8.85003000448265       -2.12104537695883        1.80404185589833
H            9.77925329434938       -4.34931027009033        2.27930787019618
H            8.81504708496379       -6.34753960225556        1.20106727687122
H            6.90812512970456       -6.10692304199896       -0.34671709541647
H            5.98154615548484       -3.87090505777349       -0.82411385436967
H            4.84319651143773       -2.17259380729627        0.80491437406517
H            1.86245070264069        2.57569594280773        3.02390361719361
H           -0.57104490321662        2.82406135301454        3.48041011162260
H           -2.19911333106851        1.54883664120553        2.19145260535534
H           -2.02601477463400        2.06307263593969       -1.01467159476945
H           -2.97147066979674        4.32349823637752       -1.05322836184578
H           -3.31673716102984        6.17836500038300        0.39589888814486
H           -4.25929403222221        8.44667592503677        0.34627991435589
H           -6.69427187022084        8.77226377107575        0.11299934348404
H           -8.17934997031262        6.81117445679507       -0.08083144421079
H           -7.23761985779849        4.54270794404689       -0.05310599786976
H           -6.18343443045499        3.02643876224703        1.44632749172714
H           -5.23462572790447        0.76609561605505        1.49410678235102
H           -2.65036139593551       -2.32401516201505        1.49461367167184
H           -4.14133913649605       -4.28857379193354        1.44258564461771
H           -5.29154898517947       -0.18179688058216       -1.10053831673924
H           -8.36492581072088       -1.40253323510601        0.29539944443461
H           -7.90362612709339       -0.29697518099979       -1.00479070604401
H           -9.19860639581978       -1.47250705321914       -1.26039431857036
H           -6.30019175681602       -2.93244545988380       -3.15043185526092
H           -7.97482714296199       -2.39272036383279       -3.30672329401816
H           -6.68570605431886       -1.20965192407748       -3.06028442349387
H           -9.47552508980031       -4.02693622163731       -1.88922522549765
H           -9.74482001033480       -6.32114419330931       -1.02920272902594
H           -8.04757014894191       -7.31723571180524        0.43425632577392
H           -6.03415219257448       -6.03592119981622        1.07456517220710
H           -1.85188295520168       -1.79181065351756       -1.25460445561239
H            0.58032681346476       -2.11924466745697       -1.54766561962868
H            5.07071409189929        1.85382837687274       -0.58892013484625
H            9.01048252981810        2.04429924027965        0.49188375686711
H           10.20874578302040        3.99818140979781       -0.40627713678635
H            9.52092318838792        4.98845435694376       -2.55863522854329
H            7.62279198588878        4.02086194733438       -3.80322834548025
H            6.42844931918465        2.06122815522515       -2.90302594686899
