104
 energy: -159.684155964792 gnorm: 0.000065478205 xtb: 6.7.1 (edcfbbe)
C            9.22189292090607       -0.42656482748663       -0.60221013987123
C            7.74174372799260       -0.33847814616812       -0.36673268728579
C            7.22368401691793       -0.33217180650330        0.93140939357714
C            8.08403881458960       -0.46653203939584        2.12399265234576
C            8.04051527846724        0.51470990475712        3.11046004425986
C            8.82362546128517        0.40366002158958        4.24471516747914
C            9.65064737232102       -0.69427014173565        4.41427881680707
C            9.68818796865056       -1.68245191119101        3.44496882748606
C            8.91207724516845       -1.56942613019149        2.30571816903873
C            5.85832934766405       -0.17513903177775        1.13929877165356
C            5.00472163677142       -0.00901413594794        0.06483533066192
N            3.60193592657674        0.17095036459283        0.28972641274796
C            3.22360320674729        1.26593548054310        1.05118635715277
O            4.04822363530310        2.04903980270486        1.47705624705256
C            1.77960379290452        1.41864382945559        1.29867813824707
C            1.34256888940995        2.44895537756822        2.10495845236927
C           -0.01666468770477        2.59160028057288        2.37899974984086
C           -0.93520108186799        1.74534551048960        1.80975968861541
C           -0.53519104988771        0.71173162552034        0.94076527231218
C           -1.44928201618773       -0.19285362666489        0.31539397600657
N           -2.82218893867528       -0.02210276204441        0.43011901418907
C           -3.41615223397436        1.23487534316463        0.25555536598116
C           -2.85958424408529        2.17085867366074       -0.61555417372109
C           -3.45045656483988        3.40609547366228       -0.77886336302526
C           -4.61351715703574        3.74472731065934       -0.08913202876650
C           -5.23993666345512        5.06219494057519       -0.26382302509015
C           -5.76340097908762        5.74931036983326        0.82945375492063
C           -6.35232924234491        6.98902037841614        0.66593817968717
C           -6.43343141564429        7.56130072968635       -0.59251330048357
C           -5.91822756845500        6.88667640622619       -1.68670238119344
C           -5.32402607552096        5.64922610115956       -1.52452310466121
C           -5.16940747860869        2.79934189082943        0.77153516019955
C           -4.58374682181184        1.56311181684321        0.94445233625402
C           -3.64663654539892       -1.15592255758536        0.54018951383354
C           -3.27506992099706       -2.19425580541155        1.39504967356395
C           -4.06970653834098       -3.31637315436792        1.53413643649965
C           -5.25354461868145       -3.39365567330454        0.81758574520451
C           -5.63067792038104       -2.34888636989637       -0.03977840120477
C           -4.83580008974087       -1.23732505843158       -0.18809792176751
C           -6.95162376241801       -2.65343155273574       -0.70826568327593
C           -8.00930318594927       -1.61381858768780       -0.32417345700119
C           -6.79985006146158       -2.72685911672663       -2.23048240595345
C           -7.27873162468106       -4.00980524381286       -0.12416989295471
C           -8.37398755294383       -4.81142480507527       -0.36131054209823
C           -8.46453073590637       -6.03251467444202        0.29403428560204
C           -7.47294361671074       -6.44261324781269        1.17168002044448
C           -6.36823403874028       -5.64326515311263        1.41601514127259
C           -6.27530210005105       -4.42445325167580        0.76436619711635
C           -0.95500477953482       -1.27135850015065       -0.40549408180784
C            0.40638304670046       -1.45990510234464       -0.57993261418128
C            1.31712902511924       -0.56675979193479       -0.04414130722330
C            0.85537770056445        0.52214026777666        0.72241207302482
C            2.74964405388190       -0.78266537490041       -0.26125891211465
O            3.19310395790232       -1.73304245861602       -0.87320534703271
C            5.50365974235342       -0.01276897549051       -1.22489544895131
C            6.86351420909053       -0.19369774248314       -1.44449071712557
C            7.33879706570109       -0.20829319956198       -2.84341447603429
C            7.10647470657061        0.88741222974902       -3.66847395873363
C            7.52650109302138        0.87542681799425       -4.98619515963978
C            8.17293969810187       -0.23627488692991       -5.49955779638451
C            8.39616903643406       -1.33659462491374       -4.68888558509751
C            7.98454780042013       -1.32265761877933       -3.36883345140698
H            9.53715503131336       -1.46184687050512       -0.72777260953913
H            9.49546857384702        0.11527218241283       -1.50508941711325
H            9.76768594212292       -0.01082892582570        0.24182923986472
H            7.39539203648343        1.37046054191940        2.97342542683137
H            8.78789919628029        1.17513334585296        5.00034268059012
H           10.26118777430013       -0.78169875217092        5.30117351310088
H           10.32445287672957       -2.54566148264167        3.57795362203824
H            8.93132458546358       -2.34967604755525        1.55936604641104
H            5.46744394871008       -0.17964546700620        2.14552856827859
H            2.07272351925375        3.12165582270495        2.52872450281988
H           -0.34785853317612        3.37355962628966        3.04528256056091
H           -1.98046132568799        1.86556431325874        2.04763663898261
H           -1.96038555662326        1.92275759873847       -1.16024340417922
H           -2.99651873495388        4.12546051603560       -1.44394380055278
H           -5.68779910644271        5.31649940253042        1.81653257567991
H           -6.74828467887492        7.51254793261638        1.52403198443519
H           -6.89581497035137        8.52881659723411       -0.71987499793818
H           -5.98180837622118        7.32658912554686       -2.67137817551542
H           -4.93948192986779        5.12081922709769       -2.38488116785633
H           -6.08044494850841        3.03213462490673        1.30262746665558
H           -5.02354893236522        0.84250648539477        1.61854088444939
H           -2.35347684219273       -2.10922002417850        1.95225817162745
H           -3.77206551779059       -4.11232712059207        2.19951554530402
H           -5.11168251897500       -0.43450648974225       -0.85604279037770
H           -8.11713926688354       -1.56970047328697        0.75762564710595
H           -7.72070686492777       -0.62938412578115       -0.68582614789848
H           -8.97112025357474       -1.87653399114877       -0.75785443732437
H           -6.04444560438194       -3.46276437069692       -2.49782213349588
H           -7.74238983887172       -3.01504042322062       -2.68959284636136
H           -6.50050720276370       -1.75976525163953       -2.62786095953956
H           -9.15278270490717       -4.50258466808152       -1.04348501147915
H           -9.31790012657811       -6.67071520153920        0.11738053754118
H           -7.56369871663358       -7.39683095009189        1.66985737776162
H           -5.59649688997817       -5.96464702062072        2.09954709072184
H           -1.65189461557732       -1.96177069023379       -0.85715186372503
H            0.77793003507492       -2.29243237579893       -1.15770088717364
H            4.83704508351940        0.10639500909674       -2.06553122971976
H            6.60459868054454        1.75539927829167       -3.26510564372727
H            7.34723786566581        1.73519646068180       -5.61571579984569
H            8.49836353746587       -0.24666393047297       -6.52954477820481
H            8.89169030228923       -2.20983567084914       -5.08812033497661
H            8.14516100165048       -2.18734762764821       -2.74225564556758
