  67
       -107.56662642
 O          2.0409105021        0.2009420570       -1.8529666946
 P          2.3932035862        0.0797146270       -0.4334185139
 C          1.5752917239        1.2962948193        0.6421040620
 C          1.1656479903        2.4785041210        0.0444191623
 C          0.5931854225        3.4789760536        0.8085563969
 C          0.4505686473        3.3049572554        2.1750680882
 C          0.8574814604        2.1219504043        2.7728971612
 C          1.4112413052        1.1113849249        2.0081778825
 C          4.1726095764        0.3038869865       -0.1195035341
 C          4.7132689585        0.3854461617        1.1573712479
 C          6.0763226538        0.5556869142        1.3147383275
 C          6.9000424657        0.6468048256        0.2031115276
 C          6.3609765258        0.5707915288       -1.0704290100
 C          4.9971450699        0.4012476145       -1.2307047084
 C          1.9849701033       -1.5470567240        0.2693144628
 C          2.9252173303       -2.5192177778        0.6944085611
 C          2.5110187588       -3.8028176275        1.0904715603
 C          1.2005148785       -4.1902899595        1.0699394080
 C          0.2201610218       -3.2381476774        0.6328055892
 C          0.6698050472       -1.9176910300        0.2590287310
 O         -0.3743657932       -1.1400431861       -0.1093641349
 C         -1.4907507746       -1.9300975318       -0.0367178190
 C         -2.7631149829       -1.5861335169       -0.3833966797
 P         -3.3230218388        0.0385184787       -0.9469715225
 O         -4.5771515056       -0.0301650129       -1.7093330866
 C         -1.9671806927        0.7967463425       -1.8961814993
 C         -1.2718986029        0.0206705209       -2.8104825021
 C         -0.3370608295        0.6135387409       -3.6385873497
 C         -0.1159678166        1.9784375091       -3.5646421635
 C         -0.8245017861        2.7534083997       -2.6614478380
 C         -1.7531425063        2.1632684599       -1.8219874553
 C         -3.4874019704        0.9861423542        0.6004384431
 C         -4.7490825652        1.4694713352        0.9159425583
 C         -4.9499903629        2.1429658541        2.1076658030
 C         -3.8928211918        2.3163291539        2.9853793647
 C         -2.6340679795        1.8272415526        2.6691406886
 C         -2.4242514603        1.1618885415        1.4758747013
 C         -3.7793171979       -2.6035971204       -0.2305709035
 C         -3.4747439705       -3.8721053292        0.2386624777
 C         -2.1902219850       -4.2292874500        0.5824883254
 C         -1.1484090207       -3.2403773997        0.4352372251
 H          1.2953446248        2.5869774606       -1.0222947714
 H          0.2657290727        4.3969267714        0.3432137532
 H          0.0159183960        4.0903992172        2.7761540665
 H          0.7452369284        1.9873011398        3.8397141698
 H          1.7066444114        0.1771785638        2.4667492670
 H          4.0694123749        0.3172290964        2.0218935151
 H          6.4998632691        0.6185689281        2.3066861740
 H          7.9641223705        0.7798223965        0.3324439943
 H          7.0031728930        0.6446887111       -1.9357330982
 H          4.5484751226        0.3416820868       -2.2117461635
 H          3.9731158096       -2.2640973157        0.7009580380
 H          3.2682012346       -4.5032238595        1.4122641377
 H          0.8906806824       -5.1794854125        1.3631816878
 H         -1.4675831340       -1.0418384931       -2.8670842994
 H          0.2210093134        0.0119080645       -4.3392616193
 H          0.6143993227        2.4397341068       -4.2130371688
 H         -0.6554441278        3.8200395546       -2.6104795871
 H         -2.3116267170        2.7561198720       -1.1091386881
 H         -5.5547086369        1.3128088746        0.2132648782
 H         -5.9292999095        2.5267905030        2.3539835998
 H         -4.0481395723        2.8318390010        3.9220529043
 H         -1.8144127907        1.9620455582        3.3584583101
 H         -1.4445815261        0.7873014431        1.2156213551
 H         -4.7841137526       -2.3310321168       -0.5109885014
 H         -4.2694135993       -4.5978084285        0.3320612149
 H         -1.9423136815       -5.2127437106        0.9436232159
