67
 energy: -107.572781937295 gnorm: 0.000056322707 xtb: 6.7.1 (edcfbbe)
O            2.00910690007844        0.25073993584516       -1.84866350609508
P            2.38280899728992        0.10047167047611       -0.43789100963113
C            1.57461759080699        1.28739307847882        0.67752062311040
C            1.16059833773395        2.48501864912322        0.11431905875395
C            0.59729775499241        3.46635686956543        0.90934976449981
C            0.46644723203694        3.25689409803124        2.27213206101220
C            0.87497642495245        2.05751360910559        2.83509574441231
C            1.42208374663007        1.06717807212162        2.03961469767109
C            4.16518854322320        0.32610182999717       -0.14413770723635
C            4.72437762776112        0.36550149848566        1.12678321477088
C            6.08860468163275        0.53880259444266        1.26984569972623
C            6.89465081310442        0.67572207535612        0.14991885997984
C            6.33680443259080        0.64294185766079       -1.11739925298464
C            4.97185632451471        0.46947161207104       -1.26336847679726
C            1.99209489728994       -1.54222729348647        0.23865706375555
C            2.94179566621007       -2.51910810954762        0.63905938479769
C            2.53557428540222       -3.80697140498321        1.02761700309747
C            1.22524295469396       -4.19529154803852        1.02433156639223
C            0.23609437763104       -3.23938628049154        0.61233698008382
C            0.67960452571920       -1.91511542147720        0.24189203217205
O           -0.37135230521026       -1.13508831593354       -0.10372803147619
C           -1.48563586763842       -1.92552314868260       -0.01875939849110
C           -2.76074865138680       -1.58363251700766       -0.34708443612337
P           -3.32985198858167        0.03323579642909       -0.93181201045874
O           -4.58305231441980       -0.05915848978075       -1.69301773119490
C           -1.97371529359544        0.77505197189120       -1.89047491832446
C           -1.31794236550927       -0.00920833300006       -2.82759148152460
C           -0.37955212920430        0.56373842634966       -3.66470622764636
C           -0.11298857530612        1.91979792942373       -3.57690066385683
C           -0.78055883475014        2.70377209284834       -2.65107652817795
C           -1.71286525560925        2.13257755528932       -1.80251245669692
C           -3.50202382125959        1.00049103381694        0.60163563002475
C           -4.76088671934818        1.50519175368533        0.89351727243202
C           -4.96764292443422        2.20611838320868        2.06823203182320
C           -3.91800653284731        2.38614490265329        2.95375354482902
C           -2.66190130821467        1.87560096311381        2.66227505116282
C           -2.44678780368695        1.18337927320754        1.48519473383456
C           -3.77578765811481       -2.60523985799884       -0.18147701114668
C           -3.46324040316860       -3.87543523459413        0.28027098345277
C           -2.17439048533245       -4.23167105026898        0.60544580911376
C           -1.13346315472110       -3.23985811443553        0.44325836758271
H            1.28016050520853        2.62026256076169       -0.95051524408320
H            0.26801326302217        4.39703437684128        0.47133050639332
H            0.04041487268147        4.02808391295107        2.89743168616777
H            0.76853076801294        1.89380658702931        3.89844197533476
H            1.72159917886579        0.12173380242906        2.47179888296662
H            4.09356778525688        0.26209399685526        1.99751750223192
H            6.52699367745964        0.56800538329669        2.25691517991936
H            7.95984896504295        0.81042026495102        0.26804601550617
H            6.96539843784240        0.75250156038697       -1.98889536219269
H            4.50843652969118        0.44230350090768       -2.23899080757610
H            3.98921689300364       -2.26188951452539        0.63193744279263
H            3.29832110281341       -4.51014642818072        1.32947798993032
H            0.92094755631598       -5.18776222084205        1.31269540240712
H           -1.55005456770827       -1.06417836923768       -2.89311306908642
H            0.14653651713698       -0.04524418835493       -4.38379648114537
H            0.62098590550171        2.36616860081543       -4.23141470384291
H           -0.57694813850827        3.76387285350328       -2.59000997324090
H           -2.23842807701363        2.73398003388641       -1.07217804593961
H           -5.56024428587980        1.34219531184220        0.18504672215599
H           -5.94486218389424        2.60631376782507        2.29565635492659
H           -4.07757241529666        2.92437268026677        3.87687032166896
H           -1.84824758281757        2.01630606162819        3.35745649113225
H           -1.46851825056904        0.79279838700813        1.24376323519634
H           -4.78451828318687       -2.33234045591621       -0.44714625936207
H           -4.25632604581455       -4.60132998075347        0.38484538082143
H           -1.91979124882853       -5.21436948227932        0.96441738196837
