67
 energy: -107.572611623930 gnorm: 0.000051413875 xtb: 6.7.1 (edcfbbe)
O            2.31634687299998        0.91077982788920       -1.86612406360474
P            2.68268264600998        0.37766041143427       -0.54677641291418
C            1.82429287003890        1.17270834585144        0.84294428663771
C            1.47223447327727        2.50111514384965        0.65763801878660
C            0.81963986878258        3.19068677916962        1.66285999709542
C            0.51128597037513        2.54867053502178        2.85006558666775
C            0.86980952708168        1.22410102261324        3.03842849740226
C            1.53584908581591        0.53612739644728        2.04182999287556
C            4.45475127297052        0.54218367833612       -0.16924702661112
C            4.99233006549542        0.10764252159021        1.03561106547076
C            6.34440098389700        0.26286996907852        1.27715032686759
C            7.15792316755501        0.85389678954224        0.32188491602048
C            6.62075165198001        1.29241000598583       -0.87714829425872
C            5.26750938504467        1.13745271229127       -1.12185008553205
C            2.35321365467465       -1.40542264045216       -0.38499938128613
C            3.33929764383442       -2.42960176546491       -0.57099609080507
C            2.99018901173780       -3.78392166380255       -0.51896569146932
C            1.70364594321289       -4.20511631524897       -0.30912009057951
C            0.67980671814034       -3.20364061964254       -0.12831362329076
C            1.07290386872923       -1.81440279396409       -0.19060609106547
O            0.00081715261039       -1.00129459904561       -0.00082665199322
C           -1.07002956226750       -1.81643823592325        0.18728427912091
C           -2.35098392691465       -1.40981212855689        0.38237048028646
P           -2.68315368947009        0.37244871651469        0.54760228682313
O           -2.31756879869213        0.90358276813797        1.86796067555337
C           -4.45545209624384        0.53513277463019        0.17037984961992
C           -5.26903860609437        1.12764345955911        1.12399483349019
C           -6.62246006201116        1.28131451169360        0.87946148833498
C           -7.15897898880320        0.84428028270886       -0.32040876791533
C           -6.34463481467998        0.25600616466480       -1.27666934191818
C           -4.99238425199463        0.10207507781647       -1.03530302732694
C           -1.82608463654220        1.17149410088798       -0.84064414961141
C           -1.53641058232543        0.53760447298608       -2.04065525199279
C           -0.87164372439152        1.22861765218826       -3.03600222780950
C           -0.51563543536590        2.55352487290228       -2.84526473073994
C           -0.82522308445468        3.19283322763891       -1.65691774821275
C           -1.47654345129603        2.50023204788256       -0.65295319069621
C           -3.33551180983455       -2.43588181953016        0.56623894569898
C           -2.98431540658960       -3.78955109555207        0.51151412079866
C           -1.69710170016385       -4.20834224774006        0.30092575323069
C           -0.67478716712977       -3.20493233457079        0.12220776190344
H            1.70441641698561        2.97022438501656       -0.28799156079297
H            0.54384756813232        4.22547178943332        1.51819860773606
H           -0.01666621766635        3.07718030198095        3.62959411663497
H            0.62062566524072        0.72449582764359        3.96277126127397
H            1.81358411330642       -0.49888052512323        2.18854080521580
H            4.35004315824499       -0.34953220196208        1.77468506010476
H            6.76804470499469       -0.07552310167719        2.21164192231534
H            8.21391538550986        0.97336743201038        0.51571029524871
H            7.25647265130520        1.75372206949475       -1.61873310820698
H            4.81939579641671        1.46810812725872       -2.04781472043446
H            4.35865753281979       -2.13290655060885       -0.76211498266793
H            3.77068251982633       -4.51762865319850       -0.66025355126145
H            1.43888061536253       -5.24885615594289       -0.28047244520974
H           -4.82141477679666        1.45720743576268        2.05058245673609
H           -7.25882271096583        1.74049698376646        1.62182270969555
H           -8.21510268777744        0.96277863730022       -0.51410166408052
H           -6.76777816157244       -0.08123793146359       -2.21179744631797
H           -4.34944932641815       -0.35294638833333       -1.77514771665472
H           -1.81222516353737       -0.49764823155754       -2.18924715927086
H           -0.62146573178887        0.73112739890368       -3.96121631636914
H            0.01137736069344        3.08441166318242       -3.62381304457590
H           -0.55139320958583        4.22787770573534       -1.51039901705268
H           -1.70968459263988        2.96722245482096        0.29348969903548
H           -4.35533525367071       -2.14113492463737        0.75788915968578
H           -3.76368473296557       -4.52474595455412        0.65124725501228
H           -1.43072985142449       -5.25161326532283        0.27019920309299
