67
 energy: -107.686334496600 gnorm: 0.000029604756 xtb: 6.7.1 (edcfbbe)
O            2.25710202745966        0.85984721694727       -1.83837586286617
P            2.66466476861777        0.35592804301305       -0.52041178218458
C            1.81369389215322        1.13863470513923        0.87996592854141
C            1.44905665445603        2.46502444148749        0.70418331979421
C            0.79978710821401        3.14406188189422        1.71854408229683
C            0.50777339068361        2.49356330684869        2.90532424298478
C            0.87888445230293        1.17119362420533        3.08398461105104
C            1.54086884361704        0.49322175644745        2.07769904173537
C            4.43978726772486        0.56567198396501       -0.18211425625666
C            5.00271807390018        0.20871027501764        1.03663791483536
C            6.35636390767172        0.39451397430940        1.24561290027673
C            7.14643438951633        0.93837723351456        0.24378206386504
C            6.58391965965340        1.30016163906996       -0.96913241438016
C            5.22902124343480        1.11470865615536       -1.18122429399234
C            2.37735790474223       -1.43676716355295       -0.33625608253822
C            3.34307158652873       -2.42125274951516       -0.47934927613160
C            3.00884606513261       -3.77222394248257       -0.42848932215258
C            1.70368730116542       -4.18922463647370       -0.24241974608232
C            0.71514542984782       -3.22246250901718       -0.10412313345528
C            1.07142901622368       -1.86044037770057       -0.15674052575278
O            0.00034848378812       -1.04643036326975       -0.00123776002410
C           -1.06954856787320       -1.86220704151956        0.15330017520910
C           -2.37609603882606       -1.44077198565492        0.33351190268960
P           -2.66639396922192        0.35113594179507        0.52074601796209
O           -2.26091400706285        0.85290678599878        1.84017237765017
C           -4.44168339782875        0.55826475419154        0.18147308013695
C           -5.23340019166564        1.09973439228492        1.18276354752781
C           -6.58867067009532        1.28225374453983        0.97050930435595
C           -7.14911526712702        0.92517218664716       -0.24475713107309
C           -6.35658176933103        0.38895159630940       -1.24875248678516
C           -5.00257175460097        0.20599318607408       -1.03957985043989
C           -1.81497109564776        1.13752050159806       -0.87723785822339
C           -1.54277700539667        0.49511375592067       -2.07675423860956
C           -0.88037801861821        1.17526356256775       -3.08127142517485
C           -0.50802846093505        2.49679523633069       -2.89898757347484
C           -0.79916613695996        3.14423133702512       -1.71033244005187
C           -1.44895777484124        2.46301825631693       -0.69775366064733
C           -3.34030777483730       -2.42688980795773        0.47549328523795
C           -3.00406446507257       -3.77729798900171        0.42300523505337
C           -1.69828404992173       -4.19206918980265        0.23634248768490
C           -0.71124202007500       -3.22363355060423        0.09903860889268
H            1.66945871962116        2.94048918127220       -0.24117135459063
H            0.51381298581537        4.17718806337822        1.58168408593437
H           -0.01762129931139        3.01398639720952        3.69201325369394
H            0.64253541084223        0.66510452080834        4.00822803083746
H            1.82806172656465       -0.54053504068327        2.21616273806663
H            4.37843556643809       -0.21145900605588        1.81220351541649
H            6.79957011839430        0.11674375131120        2.19096173909212
H            8.20382524589913        1.08161549595707        0.41220692979051
H            7.20125186155737        1.72577241681946       -1.74673149588272
H            4.76115369900757        1.38725294859336       -2.11630471774087
H            4.37219705618831       -2.12737167599558       -0.62974483218232
H            3.79080370931427       -4.50847800475881       -0.54020089568483
H            1.45500377402606       -5.23870735940405       -0.20600194043476
H           -4.76711011105286        1.36898007186237        2.11958505862601
H           -7.20790161292610        1.70194266292187        1.74981678044757
H           -8.20679805377886        1.06611274478215       -0.41329456557640
H           -6.79814312249671        0.11483920822710       -2.19593801982360
H           -4.37648919211851       -0.20831800609278       -1.81682547126942
H           -1.83076834947341       -0.53806962820961       -2.21790426247501
H           -0.64460124666827        0.67153344413347       -4.00695240457643
H            0.01779200243337        3.01886059440564       -3.68429625103295
H           -0.51208978708789        4.17666379879408       -1.57059894120877
H           -1.66860710757298        2.93599828737537        0.24901934275767
H           -4.36983924891649       -2.13467022603990        0.62636818982966
H           -3.78487207535705       -4.51488096129253        0.53399392075823
H           -1.44795560091400       -5.24112102470450        0.19876926284586
