92
 energy: -142.474674496325 gnorm: 0.000026627972 xtb: 6.7.1 (edcfbbe)
C            6.52776004431518        1.84319959924626       -2.05947036127930
C            5.44439491065078        1.02787380226920       -1.35433842053048
C            4.63249064590657        0.27892678046756       -2.43057472899912
C            6.01987352422739        0.01812172095373       -0.37651518190926
C            7.35673627146466       -0.34164711486466       -0.31553977306446
C            7.80276404821627       -1.26413069064584        0.61613641917679
C            6.91955316485490       -1.81676066014982        1.52619043038900
C            5.58435033228430       -1.46161942765876        1.49122304650124
C            5.12820802483640       -0.57377720259771        0.52439901985370
N            3.78234337179466       -0.15785011668752        0.49403230289946
C            2.71440145690276       -1.03056485537632        0.39493296657647
C            2.90564284134334       -2.42277490968024        0.40130924372050
C            1.82960309407054       -3.26552803664486        0.30410610517521
C            0.52379147256000       -2.77908148777811        0.18516145045610
C            0.31491701190099       -1.38777182239041        0.10720572215850
C            1.42164829372065       -0.54852627135486        0.19605309850107
C           -1.03681085367338       -0.86936797424274       -0.07130594155724
C           -1.29913908688871        0.49372233603716       -0.17260782203439
C           -2.58395802839261        0.99647501828046       -0.37277166136728
N           -2.79527564392626        2.35817171547350       -0.48808312939566
C           -1.76793077863783        3.31603452931057       -0.37840759379095
C           -0.64945968910605        3.26910947514541       -1.20323685228739
C            0.31837905023925        4.25065305320503       -1.11157361530439
C            0.15527453272580        5.29442916644704       -0.21827837281008
C           -0.97857450157228        5.36462983457667        0.57316919508076
C           -1.95388445720621        4.38185315082524        0.50813140557639
C           -3.23095022176761        4.38037631575874        1.33000685424382
C           -3.12317685727702        3.29807957081136        2.42332689259746
C           -3.48860065188024        5.72222487285078        2.01464891932707
C           -4.33818363273995        3.99845258482999        0.36295961130633
C           -5.57339439155335        4.62325648694306        0.29773193764711
C           -6.52588574706749        4.22039308006746       -0.62333122066156
C           -6.24212241356246        3.20504259724860       -1.51897626707730
C           -5.01129784193023        2.57766033535814       -1.47981561387699
C           -4.07453445771885        2.94809889990614       -0.52256571151239
C           -3.65691663618498        0.08884047333258       -0.36395563336424
C           -3.42017412026307       -1.25634572014931       -0.25485714152695
C           -2.12241445615559       -1.76470741474319       -0.13746897752035
C           -1.91162376243115       -3.18559397506752       -0.05124657149555
N           -2.95053192738162       -3.99527859189341       -0.12158261463160
C           -2.72253666137909       -5.31352037464764       -0.04247118711793
C           -3.78577940097516       -6.24134983452899       -0.11045930894199
F           -5.04426636788410       -5.78171300131566       -0.25379151504360
C           -3.56768656484787       -7.58816978984953       -0.03514324982405
C           -2.25914131851667       -8.07610895094248        0.11412596578869
C           -1.19487038547318       -7.22234428092775        0.18625448173599
C           -1.40038030046320       -5.82944747848579        0.11059887628345
N           -0.35228937423544       -4.99456853846487        0.18397408671084
C           -0.58269835956345       -3.69723589448747        0.10761079189411
C            3.65792437903423        1.23984320619595        0.36478966245472
C            2.80109553676015        1.96454751823172        1.18575218942697
C            2.73708853737067        3.34010804815679        1.07468326992142
C            3.54946902744628        3.99405496985119        0.16560123142095
C            4.43330920422535        3.27670832772770       -0.62252683624682
C            4.50191606572707        1.89487213651043       -0.53790345866933
H            7.17252134547836        1.18714223598963       -2.63895387702514
H            6.07512380583460        2.54640172798766       -2.75428307481161
H            7.13310232513378        2.39265081402151       -1.34188878209507
H            3.83896123501536       -0.32120048333887       -1.99417660115149
H            4.18242301670666        0.99349453422551       -3.11684525281421
H            5.28864783024578       -0.38101261004966       -2.99430674367957
H            8.06963971523490        0.09219884766393       -0.99776632681738
H            8.84669954334287       -1.53827461486189        0.63950778677699
H            7.27037023594618       -2.51277517229860        2.27318511726064
H            4.89544197876966       -1.85356766232002        2.22420281612029
H            3.89990119235132       -2.83563594385073        0.45344341922240
H            1.96783331725411       -4.33512608653315        0.31313184006479
H            1.28860973113478        0.51341805756181        0.08531281677307
H           -0.49034384235201        1.19617628178252       -0.07159796925113
H           -0.55361331206046        2.47449608967189       -1.92806054628828
H            1.19106177926713        4.20547005766489       -1.74526882179174
H            0.90525599164325        6.06747726680708       -0.14627478889511
H           -1.09096009079003        6.19937589458083        1.24603911480704
H           -4.04967579915122        3.25554310287318        2.99217225804916
H           -2.93704342648145        2.31431895395061        2.00162730401567
H           -2.30732147573823        3.53907057288234        3.10195039784546
H           -4.40420727647732        5.67469926405692        2.59886016489258
H           -3.57468327960511        6.52377252781518        1.28431931684561
H           -2.67894359948155        5.95391545488328        2.70236613123354
H           -5.81078344765053        5.43301392018608        0.96843585135369
H           -7.48594738706254        4.71341212819516       -0.64986011874555
H           -6.97157740658815        2.90975644798727       -2.25796702679495
H           -4.76424287770975        1.81439279997529       -2.20214566457956
H           -4.67259354476427        0.44572951752222       -0.41453611319884
H           -4.23775194108984       -1.95978608458849       -0.25387042543252
H           -4.40437405366260       -8.26689779032998       -0.09129250872979
H           -2.10654184662564       -9.14326659668969        0.17152543359967
H           -0.18407462538785       -7.58061304679027        0.30127510638852
H            2.20385773092385        1.44827512272920        1.92245210058959
H            2.06274297850505        3.89922678921499        1.70535867294103
H            3.50811460908765        5.06917306525522        0.07837348324982
H            5.06970731547111        3.81237311800285       -1.30825737031156
