92
 energy: -142.432618219347 gnorm: 0.000123339223 xtb: 6.7.1 (edcfbbe)
C            6.19064325827252        3.37328355394965        0.05084446574893
C            6.21822824379296        1.83399768939412        0.02497521462156
C            7.67260367946308        1.32794744634497        0.00409217425035
C            5.54331879245819        1.31326269624663        1.27888018477752
C            6.04664047546784        1.66188159991749        2.52448123400177
C            5.47388483682528        1.21083594079896        3.69942179855982
C            4.36366501994777        0.38634538516847        3.64078776903712
C            3.84299819331076        0.02291534416705        2.41780771220813
C            4.42209579159233        0.47629671982206        1.22748820293706
N            3.87534450887808        0.09486584666404        0.01605846139422
C            2.80404672341135       -0.84416033539893        0.01029529145741
C            3.09818250051676       -2.21456917362728        0.00697887611903
C            2.07253321929467       -3.11945682806124        0.00057465603471
C            0.73267791279728       -2.69517179326480       -0.00291718452357
C            0.42675344329155       -1.31200949275195        0.00100482256401
C            1.49823974058746       -0.40700438020814        0.00771367771490
C           -0.95313658547394       -0.89260510272342       -0.00219049609767
C           -1.34211863048991        0.45500419475310        0.00240469984645
C           -2.67137802828634        0.81498995560613       -0.00192806166411
N           -3.04135269116847        2.19082090943028        0.00097995747652
C           -3.31819586695916        2.80413214580827        1.20877895025078
C           -3.11928567628340        2.09882076494414        2.40087218458793
C           -3.38541824519167        2.68229912687629        3.62043568622318
C           -3.85487251346683        3.98338041431730        3.67397385457814
C           -4.04837696734587        4.68379114129057        2.49756471248374
C           -3.78778473522296        4.12241803226491        1.25525630554968
C           -4.02347798591391        4.93825950282677       -0.00070261431341
C           -5.51297214896277        5.32469948070606       -0.06280310185721
C           -3.14746741320626        6.20315799402991        0.05931397332457
C           -3.67371879070400        4.16141486566171       -1.25487387338774
C           -3.82248411160310        4.76159574576031       -2.49747395196776
C           -3.52885448469855        4.09602008209141       -3.67335585902694
C           -3.07429118014652        2.78972251202691       -3.61893121495188
C           -2.91795921502935        2.16809470055138       -2.39918988572989
C           -3.21176959181848        2.84035862720667       -1.20763488007207
C           -3.67671506957319       -0.16156522559767       -0.00963901110578
C           -3.32602570909918       -1.48380808432344       -0.01311248362605
C           -1.97550008661838       -1.87229711062146       -0.01000150321519
C           -1.66087547059862       -3.26507994785885       -0.01479736332894
N           -2.62186971472798       -4.17864066457438       -0.02251727545138
C           -2.34036267730446       -5.48307965896446       -0.02609648007136
C           -3.32192502010224       -6.47500258275835       -0.03402064206695
F           -4.62072286647950       -6.09400890083910       -0.03732880569009
C           -3.01561974371182       -7.82218307602930       -0.03831613650803
C           -1.68575108945514       -8.21525555563439       -0.03479853007573
C           -0.67243481313261       -7.27451344401990       -0.02697710940925
C           -0.96189744790961       -5.91116865636980       -0.02236962501248
N           -0.00865827651058       -4.97568598010142       -0.01502402262946
C           -0.30133304206546       -3.68043417988480       -0.01094030033587
C            4.40232329904035        0.51512345245508       -1.19131744788210
C            3.80655701379571        0.09682576392762       -2.38623728003303
C            4.30689296877187        0.50043962307672       -3.60509644418593
C            5.41367467402723        1.33009386741781       -3.65499969776027
C            6.00457028793166        1.74429676010491       -2.47549645348645
C            5.52194589677758        1.35478622084351       -1.23382094351813
H            6.69614201171238        3.75562251367877        0.93312164609738
H            6.68127577694641        3.78492789785263       -0.82662773023011
H            5.16070663702795        3.72485286433539        0.06540473110514
H            7.68578665887587        0.23972018280594       -0.01443730915821
H            8.19714093420678        1.69198032853964       -0.87492988849219
H            8.21201423243484        1.66220312584854        0.88593823663681
H            6.91301709091164        2.30280383687088        2.58675713113498
H            5.89180859051793        1.50077011935050        4.65125351517045
H            3.90180479706887        0.02460807442582        4.54708813062347
H            2.97773532691221       -0.62048486011859        2.37585474539773
H            4.12911485371593       -2.53432054149529        0.00951013730367
H            2.26246392639861       -4.18156884889535       -0.00250529745076
H            1.32122381819500        0.65700691960956        0.01034119920472
H           -0.60477971055428        1.24228354837546        0.00838229541053
H           -2.75346204988853        1.08440382587564        2.36284928307199
H           -3.22633304952277        2.11987030294288        4.52809666709713
H           -4.06903830902970        4.45024802540130        4.62311059224381
H           -4.41571346659102        5.69715414392679        2.55592444162440
H           -5.80202495918205        5.89606484035639        0.81488137419599
H           -5.72138163208503        5.92464101601114       -0.94426136186102
H           -6.12692951637118        4.42697331825885       -0.10556778679999
H           -3.30117167707367        6.82357462799373       -0.81907668631844
H           -2.09643424323922        5.92387222436724        0.10325454426584
H           -3.38192506838197        6.79605247814242        0.93886419066598
H           -4.18054685862529        5.77821861141200       -2.55669574588810
H           -3.65664973195555        4.59291898579058       -4.62280435349211
H           -2.84220332546523        2.25253122499153       -4.52615660697284
H           -2.56679239057206        1.14854832020637       -2.36098301904677
H           -4.71174384658625        0.14435420583501       -0.01235070270812
H           -4.07347794675257       -2.26203077803378       -0.01927702631474
H           -3.81697780973602       -8.54311353263274       -0.04437490927505
H           -1.44041968980294       -9.26572605499666       -0.03820026757320
H            0.36363860491948       -7.57372603755521       -0.02419573476562
H            2.94483763202881       -0.55170265835428       -2.35129152839626
H            3.83212077969384        0.16558527901778       -4.51504916599495
H            5.81557031070322        1.65158995128618       -4.60359024593031
H            6.86899127714937        2.38846884413626       -2.53101231769369
