  90
       -145.15917997
 N        -10.9542247319        1.8668632651       -0.5171243857
 C         -9.9407428144        1.3507326880       -0.3734851942
 C         -8.7086290547        0.6785800438       -0.1872593101
 N         -7.5772990539        1.3692120456       -0.3675620051
 C         -6.4631098391        0.6964032291       -0.1825896836
 C         -6.4618218094       -0.6988204878        0.1849158221
 N         -7.5750595529       -1.3744993106        0.3657367994
 C         -8.7074202652       -0.6870222654        0.1802277464
 C         -9.9378988443       -1.3640093253        0.3597108125
 N        -10.9480164297       -1.8882038697        0.4979709313
 C         -5.0904514098       -1.1349878479        0.2968714172
 C         -4.4619126523       -2.3215760999        0.6023812817
 C         -3.0674557547       -2.3623604933        0.5268730071
 C         -2.2801093862       -1.2664614454        0.1957937755
 C         -0.8560130871       -1.4806887262       -0.0733690704
 C         -0.0354309715       -2.1771242123        0.8106349077
 C          1.2922289623       -2.3996550209        0.5188732447
 C          1.8420431054       -1.9647452647       -0.6922211532
 N          3.1810700565       -2.1912796286       -0.9826908779
 C          3.9098104541       -1.3314795492       -1.8168230576
 C          4.8902481965       -1.8505630763       -2.6623506449
 C          5.6331564222       -1.0092370942       -3.4674509159
 C          5.4084622661        0.3576588574       -3.4508095978
 C          4.4295885688        0.8771135025       -2.6201202611
 C          3.6871226264        0.0443254802       -1.8054281218
 C          3.8465175715       -3.2945505003       -0.4190334927
 C          5.1315591252       -3.1456871077        0.0990346743
 C          5.7880599666       -4.2310837926        0.6469314250
 C          5.1747647733       -5.4726756390        0.6901848286
 C          3.8973777955       -5.6243917314        0.1758261826
 C          3.2351954324       -4.5460428438       -0.3794298025
 C          1.0078361328       -1.2993766112       -1.5960652807
 C         -0.3091121876       -1.0522847466       -1.2837091028
 C         -2.9001544123        0.0032863473        0.0049339031
 C         -2.2833840435        1.2745644901       -0.1852491770
 C         -0.8595293648        1.4906558655        0.0843149587
 C         -0.3136868006        1.0668259124        1.2965947760
 C          1.0039505041        1.3125017883        1.6073652885
 C          1.8392994227        1.9702726015        0.6992867173
 N          3.1801608851        2.1935103399        0.9866810211
 C          3.9099735123        1.3284618620        1.8135913835
 C          3.6726635667       -0.0451144822        1.8075163892
 C          4.4150828703       -0.8845611966        2.6152133153
 C          5.4092264931       -0.3745479182        3.4334610590
 C          5.6488011783        0.9898411992        3.4447722988
 C          4.9056581152        1.8380494998        2.6470802331
 C          3.8422663830        3.2987180126        0.4226826416
 C          3.2276670513        4.5488325921        0.3882417728
 C          3.8833491108        5.6293365148       -0.1705307715
 C          5.1577438811        5.4811392329       -0.6933416314
 C          5.7746808102        4.2411325110       -0.6544773057
 C          5.1245382644        3.1535058884       -0.1033062725
 C          1.2902392411        2.4015285444       -0.5132882926
 C         -0.0382753071        2.1817367698       -0.8030922686
 C         -3.0724844781        2.3688003793       -0.5171791164
 C         -4.4667282740        2.3244733095       -0.5949725269
 C         -5.0924820293        1.1361546451       -0.2905724127
 C         -4.2980313234        0.0015455223        0.0039684442
 H         -5.0253324797       -3.2073893676        0.8515472319
 H         -2.5722210046       -3.3101387265        0.6842496743
 H         -0.4344872976       -2.5127055941        1.7567285655
 H          1.9176047077       -2.9121827030        1.2344043807
 H          5.0636903346       -2.9164001714       -2.6844496642
 H          6.3878798811       -1.4259120438       -4.1177531771
 H          5.9897379645        1.0124285476       -4.0816762134
 H          4.2499621982        1.9421494289       -2.5964147594
 H          2.9299538696        0.4571151324       -1.1587544083
 H          5.6051618090       -2.1753339371        0.0722357459
 H          6.7819867229       -4.1036045061        1.0492476536
 H          5.6897282342       -6.3177865969        1.1205211471
 H          3.4159897248       -6.5907159914        0.1984142884
 H          2.2433875394       -4.6657148800       -0.7907746573
 H          1.4004149578       -0.9878465300       -2.5520392635
 H         -0.9407990069       -0.5498836325       -2.0012516939
 H         -0.9464534363        0.5687933276        2.0162517108
 H          1.3963254126        1.0052728511        2.5648191082
 H          2.9036529741       -0.4511110298        1.1705451453
 H          4.2235748773       -1.9475967618        2.5956729912
 H          5.9908998457       -1.0345575308        4.0583844704
 H          6.4159734085        1.3992628852        4.0849456898
 H          5.0910129901        2.9019074740        2.6657359760
 H          2.2376160502        4.6652881783        0.8047502245
 H          3.3990472112        6.5942959086       -0.1896671500
 H          5.6676195392        6.3277963005       -1.1267381946
 H          6.7663963528        4.1165845935       -1.0632035529
 H          5.6007518775        2.1843183405       -0.0805853059
 H          1.9167997017        2.9089680323       -1.2314102245
 H         -0.4374250281        2.5143425627       -1.7501716844
 H         -2.5790177943        3.3176026496       -0.6739640198
 H         -5.0323925004        3.2085034876       -0.8452833135
