  70
  -110.171175576400       0.211292225965550      !
 C         -2.5364981465        4.7355172101        0.0131089769
 C         -2.3479052055        3.9762186186        1.1567033907
 C         -2.6566999586        2.6284845643        1.1564247492
 C         -3.1574285442        2.0367660673        0.0004879390
 N         -3.4622900203        0.6625830621       -0.0049291131
 C         -2.5337797690       -0.3910331074        0.0600428415
 C         -1.1341096780       -0.3068035730        0.0352383790
 C         -0.3976340511       -1.5030209661        0.3006267729
 C          0.9577242549       -1.5238222556        0.3023347904
 C          1.7337221226       -0.3551394561        0.0360180868
 C          3.1548599479       -0.3651376940        0.0446119503
 C          3.8992078606       -1.5753294984       -0.0256878056
 C          5.2635215862       -1.5852857424       -0.0405954448
 C          6.0022578465       -0.3856498916        0.0271188822
 C          7.4300770011       -0.3616774791        0.0039844527
 C          8.3210401356       -1.4398906571       -0.0685355501
 N          9.5625757121       -0.9113350949       -0.0703544815
 C         10.7861411959       -1.4898145417       -0.1267671366
 C         11.9004964096       -0.7028888936       -0.1168369678
 C         11.7823257153        0.6991183631       -0.0479091399
 C         10.5487893763        1.2904231430        0.0114779030
 C          9.4024887257        0.4812573945        0.0013656103
 N          8.1307037502        0.8065312911        0.0468423350
 C          5.2796109780        0.8230099716        0.1156362522
 C          3.9164898511        0.8348602817        0.1193515315
 C          0.9901168122        0.8248496040       -0.2634594141
 C         -0.3682113409        0.8542563730       -0.2711192855
 N         -3.1725767901       -1.5718910358        0.1046851933
 C         -4.4736119505       -1.3088369977        0.0418243217
 C         -5.5514034409       -2.2415472881        0.0103587748
 C         -5.3065873382       -3.6167548096        0.0317802683
 C         -6.3506212098       -4.5106091984       -0.0258795373
 C         -7.6529444039       -4.0290029007       -0.1122087007
 C         -7.9051188068       -2.6739751322       -0.1303354930
 C         -6.8685942884       -1.7324970561       -0.0629144476
 C         -7.1028867316       -0.2984358872       -0.0472731219
 C         -8.3965222357        0.2316718380       -0.0537737718
 C         -8.6360778295        1.5870946525        0.0016246108
 C         -7.5699471267        2.4814352464        0.0823209105
 C         -6.2839750797        2.0082296810        0.0797625055
 C         -6.0119633504        0.6273836049       -0.0017163877
 C         -4.7072472128        0.0902500071       -0.0127215980
 C         -3.3488580798        2.7989876105       -1.1494052986
 C         -3.0369689294        4.1457561974       -1.1371929361
 H         -2.2927907678        5.7869008981        0.0173079473
 H         -1.9607794577        4.4350455347        2.0538851185
 H         -2.5088101701        2.0246738802        2.0393078491
 H         -0.9687272427       -2.3903774600        0.5210133126
 H          1.4603903744       -2.4454365404        0.5501936551
 H          3.3746103875       -2.5142132440       -0.1093677644
 H          5.7876251151       -2.5264996904       -0.1137010554
 H          8.1494711886       -2.4954269407       -0.1163163997
 H         10.8184817297       -2.5676201926       -0.1785345453
 H         12.8746467554       -1.1613879178       -0.1623876261
 H         12.6760633995        1.3030931397       -0.0417182304
 H         10.4202615311        2.3581929416        0.0652616445
 H          5.8463663374        1.7382281948        0.1842159766
 H          3.4059618966        1.7798738922        0.2172199998
 H          1.5212734949        1.7213683059       -0.5430592926
 H         -0.8663736785        1.7666716267       -0.5547276591
 H         -4.2806761862       -3.9449510208        0.0903716341
 H         -6.1652708816       -5.5739922915       -0.0088948510
 H         -8.4788536453       -4.7233859881       -0.1657629937
 H         -8.9315237375       -2.3513345162       -0.2009340079
 H         -9.2466003541       -0.4299265541       -0.0952620165
 H         -9.6508070128        1.9556684546       -0.0053836698
 H         -7.7564498294        3.5428999395        0.1498428324
 H         -5.4647287829        2.7038199240        0.1571763779
 H         -3.7396865514        2.3275986652       -2.0391650859
 H         -3.1817505202        4.7355874707       -2.0297680751
  70
  -110.171042343500       0.183507541546549      !
 C         -2.6174269159        4.7643854734        0.0111937561
 C         -3.1653671404        4.1805181366        1.1428934941
 C         -3.4570866855        2.8293812404        1.1571909777
 C         -3.1987535320        2.0559263804        0.0276037446
 N         -3.4812813974        0.6780713529        0.0337080397
 C         -2.5298138884       -0.3532912156       -0.0486524668
 C         -1.1325012085       -0.2372802160       -0.0079923705
 C         -0.3654677976       -1.3991550168       -0.3296193916
 C          0.9898847390       -1.3868246890       -0.3210731575
 C          1.7360816411       -0.2183415619        0.0221193450
 C          3.1571361379       -0.1981114575        0.0200989355
 C          3.9296866223       -1.3928066592       -0.0307864943
 C          5.2924164762       -1.3695250038       -0.0333731933
 C          6.0060706232       -0.1530138374        0.0086415723
 C          7.4340732090       -0.1653892670       -0.0034442568
 C          8.3198007301        0.9166558527        0.0745604104
 N          9.5643362315        0.3975218289        0.0208548176
 C         10.7854582441        0.9825977462        0.0561701647
 C         11.9036536087        0.2049166534       -0.0215136453
 C         11.7920569064       -1.1945706838       -0.1380716640
 C         10.5611044574       -1.7929446211       -0.1720148746
 C          9.4108920471       -0.9933932639       -0.0905135918
 N          8.1406579924       -1.3265350829       -0.1021792945
 C          5.2577069892        1.0412934892        0.0571463438
 C          3.8934372323        1.0188693603        0.0649473902
 C          0.9601621293        0.9229096520        0.3853884729
 C         -0.3986090505        0.9216492618        0.3741010757
 N         -3.1401697135       -1.5472935551       -0.1170119932
 C         -4.4469282062       -1.3151486902       -0.0486653354
 C         -5.5011870818       -2.2743338288       -0.0215488991
 C         -5.2221599080       -3.6430156576       -0.0451446171
 C         -6.2433085972       -4.5624337068        0.0192645576
 C         -7.5566183976       -4.1134090864        0.1136542441
 C         -7.8424953947       -2.7649968344        0.1319002487
 C         -6.8300424230       -1.7983552143        0.0580645785
 C         -7.0992259813       -0.3702942189        0.0447365532
 C         -8.4057326416        0.1270512498        0.0401919119
 C         -8.6787656181        1.4763621470       -0.0094638464
 C         -7.6346321777        2.3972278063       -0.0746161191
 C         -6.3372602934        1.9561515479       -0.0641408481
 C         -6.0312043427        0.5822090589        0.0126369345
 C         -4.7134066435        0.0772326879        0.0271158743
 C         -2.6482844967        2.6416024663       -1.1089132467
 C         -2.3601543471        3.9937527266       -1.1113645751
 H         -2.3904819606        5.8195233537        0.0053614674
 H         -3.3633137279        4.7787712184        2.0195469720
 H         -3.8836956169        2.3629929558        2.0331467681
 H         -0.9127524335       -2.2866532426       -0.6037560588
 H          1.5153780307       -2.2807015558       -0.6162132611
 H          3.4292865382       -2.3477662101       -0.0347633219
 H          5.8663305431       -2.2822752956       -0.0621193644
 H          8.1433812883        1.9686163482        0.1656954628
 H         10.8131592998        2.0581165834        0.1458720308
 H         12.8758832200        0.6689519333        0.0061104945
 H         12.6886767586       -1.7908846131       -0.2002813054
 H         10.4369794390       -2.8588293355       -0.2604857631
 H          5.7742370272        1.9894718137        0.0780781233
 H          3.3634319776        1.9584305261        0.0703758612
 H          1.4639140948        1.8131865605        0.7280293852
 H         -0.9228801661        1.8021698632        0.7080912244
 H         -4.1886555623       -3.9457159307       -0.1079522472
 H         -6.0313928807       -5.6208552907        0.0032172743
 H         -8.3645805819       -4.8281543652        0.1736536156
 H         -8.8760861493       -2.4677573300        0.2096405623
 H         -9.2392232369       -0.5560762512        0.0666324680
 H         -9.7024451261        1.8194376562       -0.0107879073
 H         -7.8467835071        3.4541355335       -0.1372588564
 H         -5.5353069129        2.6723040005       -0.1332360340
 H         -2.4469522525        2.0296059342       -1.9753899706
 H         -1.9346584401        4.4471195554       -1.9938158930
  70
  -110.170967903700       0.169606992629201      !
 C         -2.7179250855        4.7912784361       -0.1948549078
 C         -2.7501631188        4.1297921754        1.0223339342
 C         -2.9923626424        2.7688206047        1.0681812580
 C         -3.2021897416        2.0679809924       -0.1153405199
 N         -3.4605516613        0.6812590797       -0.0757314091
 C         -2.5167294930       -0.3579714434       -0.1394455373
 C         -1.1202371548       -0.2576862199       -0.2121704224
 C         -0.3784882502       -1.4804441652       -0.2494205078
 C          0.9760019108       -1.4961458640       -0.2849071955
 C          1.7469705749       -0.2947615153       -0.2617178177
 C          3.1673309306       -0.3077805801       -0.2400922291
 C          3.9137328986       -1.4537826444       -0.6318157515
 C          5.2769813204       -1.4772782944       -0.5892256409
 C          6.0111792556       -0.3619577847       -0.1336789668
 C          7.4360610828       -0.3666559700       -0.0450717214
 C          8.3287158362       -1.3955057358       -0.3725297261
 N          9.5661488343       -0.9283979633       -0.1058659139
 C         10.7887251786       -1.4977713505       -0.2326998740
 C         11.8985076332       -0.7878639883        0.1222008543
 C         11.7765289123        0.5257206435        0.6157708450
 C         10.5439687098        1.1081848222        0.7447632614
 C          9.4023909472        0.3782894450        0.3800334186
 N          8.1323780878        0.7114980484        0.4143357236
 C          5.2857773321        0.7860830396        0.2513638346
 C          3.9245130318        0.8175160410        0.1910458832
 C          0.9998982949        0.9204608986       -0.2470232354
 C         -0.3586312646        0.9460280408       -0.2367118019
 N         -3.1379219785       -1.5491121783       -0.0972745339
 C         -4.4404975707       -1.3045345066       -0.0046792253
 C         -5.5035625860       -2.2506849066        0.0800762343
 C         -5.2414523776       -3.6228019987        0.0622550951
 C         -6.2719588145       -4.5296007585        0.1488457144
 C         -7.5788121061       -4.0640268293        0.2547216239
 C         -7.8478758240       -2.7124821570        0.2729399530
 C         -6.8247024519       -1.7576384354        0.1866227143
 C         -7.0760609346       -0.3268415952        0.2046971360
 C         -8.3715509885        0.1881971380        0.3131992374
 C         -8.6255768366        1.5416572550        0.3330069335
 C         -7.5732311286        2.4514067813        0.2418533050
 C         -6.2864804555        1.9931716978        0.1340547116
 C         -6.0000825056        0.6131757037        0.1138793655
 C         -4.6935623885        0.0911716237        0.0118746081
 C         -3.1700617632        2.7303702039       -1.3384222225
 C         -2.9270300390        4.0916474028       -1.3722606777
 H         -2.5300287567        5.8537078736       -0.2258016517
 H         -2.5867362871        4.6747345146        1.9398117971
 H         -3.0202472768        2.2403905395        2.0095048837
 H         -0.9462931049       -2.3966136921       -0.2358872015
 H          1.4844285455       -2.4473802485       -0.2812350156
 H          3.3910775422       -2.3181231909       -1.0108401852
 H          5.8044946886       -2.3626501305       -0.9114245862
 H          8.1609908844       -2.3792738142       -0.7599875084
 H         10.8239398917       -2.5064957959       -0.6155785613
 H         12.8717830180       -1.2395783928        0.0228865589
 H         12.6664466343        1.0692215500        0.8915644739
 H         10.4126424119        2.1094529552        1.1185644332
 H          5.8496397081        1.6351935206        0.6041161893
 H          3.4086045845        1.7042076276        0.5246160825
 H          1.5296647412        1.8596341676       -0.2867736712
 H         -0.8596075693        1.8995193224       -0.2503125990
 H         -4.2132396832       -3.9381403406       -0.0207285759
 H         -6.0731970369       -5.5906327722        0.1359297453
 H         -8.3947522111       -4.7687863008        0.3241208237
 H         -8.8774285264       -2.4028415411        0.3562998342
 H         -9.2111675533       -0.4840117257        0.3855041040
 H         -9.6410266700        1.8980581886        0.4193189882
 H         -7.7710000081        3.5128626671        0.2567601119
 H         -5.4774941606        2.7014132972        0.0638321303
 H         -3.3357264881        2.1727158436       -2.2483579540
 H         -2.9026108928        4.6068864684       -2.3206244770
  70
  -110.170702786000       0.128116213516744      !
 C         -2.7529917231        4.8214559239       -0.1030192067
 C         -3.0475586326        4.1764221659        1.0880538672
 C         -3.2897277488        2.8153078724        1.1005945993
 C         -3.2356403101        2.0949602467       -0.0900752889
 N         -3.4781421203        0.7074813014       -0.0866237515
 C         -2.5184933290       -0.3067109300       -0.2513913702
 C         -1.1243077447       -0.1756440760       -0.3250611916
 C         -0.3686981222       -1.3608381561       -0.5892680415
 C          0.9861758766       -1.3561002300       -0.6132294768
 C          1.7431366056       -0.1679274423       -0.3816148714
 C          3.1637195708       -0.1690872036       -0.3475126918
 C          3.9075725178       -1.3695170970       -0.1723066268
 C          5.2672400364       -1.3642696226       -0.0787947098
 C          6.0045910688       -0.1644679025       -0.1710704701
 C          7.4261845466       -0.1939304834       -0.0380730470
 C          8.3328437321        0.8727134318       -0.0808029885
 N          9.5583711925        0.3416664018        0.1129756637
 C         10.7864624517        0.9103280850        0.1709522564
 C         11.8797865939        0.1234832682        0.3875018647
 C         11.7356573413       -1.2685593085        0.5491639104
 C         10.4975311164       -1.8502474372        0.4908742912
 C          9.3729343787       -1.0409232097        0.2688938623
 N          8.1018489244       -1.3579694805        0.1771168584
 C          5.2855243717        1.0304571177       -0.3817962628
 C          3.9231609926        1.0284228744       -0.4599274369
 C          0.9816907781        1.0146149906       -0.1449288191
 C         -0.3768305945        1.0175074940       -0.1091400719
 N         -3.1139387467       -1.5111630032       -0.2626992795
 C         -4.4131105940       -1.3018292903       -0.0810903118
 C         -5.4464886837       -2.2780769749        0.0256237604
 C         -5.1521125036       -3.6411418548       -0.0583781542
 C         -6.1509907823       -4.5779572104        0.0708195573
 C         -7.4570892927       -4.1520099495        0.2905251067
 C         -7.7580649292       -2.8093924034        0.3721299515
 C         -6.7687884976       -1.8249124284        0.2386163932
 C         -7.0560949325       -0.4017268729        0.2986696785
 C         -8.3593963446        0.0750252429        0.4688325390
 C         -8.6521694673        1.4205847026        0.5004947853
 C         -7.6342794874        2.3600736733        0.3445685933
 C         -6.3402468381        1.9396619262        0.1824424808
 C         -6.0113125315        0.5688912724        0.1715473339
 C         -4.6940039817        0.0852521856        0.0256326434
 C         -2.9410467272        2.7416844657       -1.2865465554
 C         -2.7004176951        4.1035130945       -1.2869709483
 H         -2.5643379636        5.8841540076       -0.1077149602
 H         -3.0860531490        4.7344415664        2.0113854879
 H         -3.5208434169        2.3005677595        2.0215164003
 H         -0.9258348726       -2.2644724603       -0.7766102212
 H          1.5049039434       -2.2720788521       -0.8479917830
 H          3.3822930014       -2.3048422377       -0.0618480545
 H          5.8200822690       -2.2762980379        0.0823081343
 H          8.1826541326        1.9223043540       -0.2291556618
 H         10.8394937104        1.9807521971        0.0404522111
 H         12.8574711947        0.5744923328        0.4344051286
 H         12.6128535593       -1.8723274210        0.7205412941
 H         10.3485937965       -2.9099389707        0.6105853293
 H          5.8235809359        1.9612255195       -0.4840899964
 H          3.4132996769        1.9608689690       -0.6469679709
 H          1.4991842751        1.9368809731        0.0693205024
 H         -0.8872316153        1.9370188434        0.1244572973
 H         -4.1245190793       -3.9253707708       -0.2225710160
 H         -5.9274293986       -5.6321750036        0.0072751406
 H         -8.2472994556       -4.8807570788        0.3992156094
 H         -8.7854973144       -2.5309544025        0.5438924425
 H         -9.1751420496       -0.6215699411        0.5750230823
 H         -9.6722172089        1.7470648915        0.6368241822
 H         -7.8645212346        3.4150289175        0.3499149531
 H         -5.5599223083        2.6707195573        0.0497791477
 H         -2.8973787715        2.1696692721       -2.2013991300
 H         -2.4719989362        4.6052190222       -2.2151510860
  70
  -110.170613576800       0.116575257881663      !
 C         -2.5427530611        4.7340420753        0.1330100041
 C         -3.1345232116        4.1519463263        1.2430556851
 C         -3.4363094638        2.8026737475        1.2430794778
 C         -3.1434092114        2.0305808690        0.1216270030
 N         -3.4476385228        0.6559164024        0.1156747531
 C         -2.5244988995       -0.4030037508        0.1753406492
 C         -1.1303145187       -0.3260347694        0.3016805806
 C         -0.3904639529       -1.5411808979        0.1552886790
 C          0.9641146145       -1.5633368060        0.1971723217
 C          1.7330023498       -0.3750313169        0.3816474417
 C          3.1532582583       -0.3751720752        0.3323713732
 C          3.8926114167        0.8171149563        0.0966245535
 C          5.2517279923        0.8095712885       -0.0077681453
 C          5.9913625907       -0.3838324384        0.1328684992
 C          7.4127834919       -0.3567972797       -0.0052917049
 C          8.3213143421       -1.4196055151        0.0719712333
 N          9.5458566391       -0.8928608064       -0.1394126467
 C         10.7752956144       -1.4604346475       -0.1763082434
 C         11.8673439591       -0.6785563395       -0.4152951746
 C         11.7205924274        0.7071524704       -0.6221609645
 C         10.4810933651        1.2874944561       -0.5862786904
 C          9.3577844340        0.4833695091       -0.3405510577
 N          8.0859771491        0.8007154750       -0.2597546428
 C          5.2760378239       -1.5698770105        0.3984683693
 C          3.9142258461       -1.5663003198        0.4872921311
 C          0.9852271163        0.8182173842        0.6085238889
 C         -0.3727449076        0.8475582069        0.5818722742
 N         -3.1656572914       -1.5820266106        0.1105526339
 C         -4.4638673185       -1.3118667570        0.0306553997
 C         -5.5450182688       -2.2391718614       -0.0285265865
 C         -5.3090587368       -3.6151904126        0.0208060089
 C         -6.3589683878       -4.5031313905       -0.0158073573
 C         -7.6589710616       -4.0143700587       -0.0965996180
 C         -7.9019919221       -2.6585533129       -0.1488403944
 C         -6.8580540346       -1.7232294050       -0.1232233947
 C         -7.0787541035       -0.2893720785       -0.2060709704
 C         -8.3609224955        0.2448910758       -0.3660439099
 C         -8.5843241146        1.5993236811       -0.4805963910
 C         -7.5108343264        2.4882864185       -0.4522215636
 C         -6.2365855326        2.0108923010       -0.2896915173
 C         -5.9836150428        0.6310970257       -0.1490783828
 C         -4.6914383248        0.0891810501        0.0170420042
 C         -2.5500774536        2.6143644255       -0.9939177778
 C         -2.2514612745        3.9644290577       -0.9820713643
 H         -2.3076653470        5.7874170754        0.1380025220
 H         -3.3593115319        4.7495063979        2.1135847055
 H         -3.8992213103        2.3375286987        2.1009983746
 H         -0.9579556174       -2.4409845063       -0.0190107537
 H          1.4736644833       -2.5000664966        0.0353995769
 H          3.3634624355        1.7455531528       -0.0499804193
 H          5.8019989642        1.7144605839       -0.2120355160
 H          8.1724480941       -2.4642097445        0.2525091795
 H         10.8301769333       -2.5260598950       -0.0120793993
 H         12.8460994923       -1.1284645753       -0.4454404773
 H         12.5969088392        1.3071108586       -0.8101634903
 H         10.3304501045        2.3425921797       -0.7396730640
 H          5.8163756851       -2.4944487097        0.5372868982
 H          3.4060181950       -2.4901222999        0.7158104128
 H          1.5135880010        1.7254168652        0.8579296944
 H         -0.8785929951        1.7712756157        0.8093935760
 H         -4.2856919918       -3.9485009438        0.0922185697
 H         -6.1804118223       -5.5671674586        0.0214966890
 H         -8.4904343851       -4.7039077573       -0.1191436557
 H         -8.9273123050       -2.3303879338       -0.2087980312
 H         -9.2134663676       -0.4131044172       -0.4126650889
 H         -9.5904649840        1.9710559478       -0.6040640495
 H         -7.6819176629        3.5488886979       -0.5614268935
 H         -5.4103965495        2.7024964372       -0.2830875486
 H         -2.3239487860        2.0029952419       -1.8546031340
 H         -1.7916340498        4.4171114948       -1.8474037181
  70
  -110.170505834500       0.104013917134239      !
 C         -2.7404548963        4.8176411290       -0.1878612992
 C         -3.0036444243        4.1923898784        1.0206428996
 C         -3.2467971914        2.8318004605        1.0614004482
 C         -3.2258086690        2.0930423785       -0.1182552232
 N         -3.4743928908        0.7059991522       -0.0842769334
 C         -2.5183736997       -0.3194768954       -0.1835849615
 C         -1.1224994126       -0.2035470964       -0.2513094972
 C         -0.3774826194       -1.4123108189       -0.4233224407
 C          0.9766934526       -1.4198775110       -0.4657014283
 C          1.7454614793       -0.2269503214       -0.3098738853
 C          3.1662167493       -0.2425356092       -0.2964279924
 C          3.9079745562       -1.3478951014       -0.7987634733
 C          5.2705478203       -1.3866566360       -0.7501305205
 C          6.0099769730       -0.3273332488       -0.1837779940
 C          7.4332043410       -0.3605123272       -0.0753385651
 C          8.3127201078       -1.3846181125       -0.4493707678
 N          9.5525393173       -0.9621987453       -0.1255572391
 C         10.7653194130       -1.5512919912       -0.2552686649
 C         11.8801225373       -0.8904288862        0.1714541193
 C         11.7733895682        0.3937790271        0.7397576519
 C         10.5507380696        0.9954925920        0.8728704667
 C          9.4034515736        0.3147415702        0.4377515556
 N          8.1397077651        0.6715031460        0.4662764921
 C          5.2908634340        0.7868588499        0.2996237443
 C          3.9298446846        0.8328256675        0.2388572764
 C          0.9950411808        0.9743677265       -0.1402852419
 C         -0.3637997445        0.9952169946       -0.1233659675
 N         -3.1223113306       -1.5196963344       -0.1527361314
 C         -4.4241936226       -1.2949706156       -0.0156686101
 C         -5.4672071979       -2.2593233259        0.1038648080
 C         -5.1801828602       -3.6263977841        0.0925223419
 C         -6.1894440233       -4.5505348323        0.2307477442
 C         -7.4989782032       -4.1074177574        0.3848177882
 C         -7.7927029933       -2.7609127241        0.3944608092
 C         -6.7923417034       -1.7890182759        0.2513744019
 C         -7.0701419794       -0.3628464750        0.2424969383
 C         -8.3747774927        0.1289661329        0.3467121437
 C         -8.6568477394        1.4768834652        0.3212593895
 C         -7.6255420341        2.4033729327        0.1759240012
 C         -6.3302048123        1.9681709040        0.0743850096
 C         -6.0137355035        0.5952167821        0.1158250413
 C         -4.6971973809        0.0968429983        0.0228372479
 C         -2.9627200634        2.7196288123       -1.3323357710
 C         -2.7203263309        4.0809779426       -1.3610052247
 H         -2.5507253201        5.8797767625       -0.2148352686
 H         -3.0184068171        4.7653990099        1.9354197751
 H         -3.4552011997        2.3324172563        1.9960345376
 H         -0.9424601403       -2.3259881249       -0.5122884199
 H          1.4856755729       -2.3642592240       -0.5748861169
 H          3.3831990111       -2.1665336965       -1.2654241021
 H          5.7933138939       -2.2403141165       -1.1550337810
 H          8.1343547387       -2.3391802070       -0.8996507853
 H         10.7887527645       -2.5356944142       -0.6974140686
 H         12.8455995656       -1.3578408264        0.0707958468
 H         12.6672881475        0.8998803995        1.0697151633
 H         10.4317095346        1.9760559289        1.3018592203
 H          5.8584840544        1.5955793530        0.7319796852
 H          3.4202630804        1.6895667835        0.6512387133
 H          1.5212966729        1.9120777799       -0.0516691826
 H         -0.8665131702        1.9389654619        0.0076839215
 H         -4.1499641558       -3.9237945092       -0.0236088768
 H         -5.9713038160       -5.6077350773        0.2241120266
 H         -8.2979814452       -4.8257356054        0.4985104508
 H         -8.8232152475       -2.4693971555        0.5186940984
 H         -9.1998398440       -0.5576185680        0.4465611965
 H         -9.6787750477        1.8151580523        0.4060806202
 H         -7.8465695334        3.4597548419        0.1411279975
 H         -5.5388263440        2.6886869622       -0.0499135428
 H         -2.9450570289        2.1333247642       -2.2389362848
 H         -2.5158195209        4.5674278621       -2.3027898705
  70
  -110.170222313500       7.705382850684431E-002 !
 C         -2.4025640924        4.6758109611       -0.1800735232
 C         -2.0406063964        3.8686178838        0.8865797231
 C         -2.3852819423        2.5297566131        0.8951645690
 C         -3.0965050508        1.9946305473       -0.1750793383
 N         -3.4349768149        0.6287703744       -0.1764640291
 C         -2.5333074798       -0.4441905728       -0.2862113877
 C         -1.1446269467       -0.3793545434       -0.4693007053
 C         -0.4006144365       -1.5884782535       -0.3009003032
 C          0.9539538778       -1.6055206141       -0.3505120171
 C          1.7161217256       -0.4188099742       -0.5729697086
 C          3.1348392680       -0.4027406198       -0.4993332057
 C          3.9103070359       -1.5925268684       -0.5734238871
 C          5.2683666147       -1.5785807575       -0.4416548255
 C          5.9653698736       -0.3742559566       -0.2110889783
 C          7.3792918059       -0.3304920378       -0.0145702884
 C          8.2936785288       -1.3910358638        0.0017219966
 N          9.5047118277       -0.8488047736        0.2477870176
 C         10.7317492791       -1.4084857795        0.3744524770
 C         11.8080612963       -0.6115727315        0.6342694157
 C         11.6475566562        0.7814843907        0.7691310382
 C         10.4104971949        1.3540381110        0.6411213261
 C          9.3031253018        0.5343826555        0.3752177131
 N          8.0358681678        0.8410977811        0.2177632948
 C          5.2129329672        0.8184490540       -0.1603531958
 C          3.8579022401        0.8077186645       -0.3074950050
 C          0.9608185416        0.7577101093       -0.8572375678
 C         -0.3967205952        0.7820261224       -0.8186846023
 N         -3.1870725416       -1.6135608870       -0.1927539043
 C         -4.4757535761       -1.3233862529       -0.0454081431
 C         -5.5677845836       -2.2334751954        0.0626233220
 C         -5.3597792646       -3.6124628915       -0.0201066847
 C         -6.4220770264       -4.4826883607        0.0603171811
 C         -7.7068958211       -3.9732910935        0.2188746393
 C         -7.9220404365       -2.6145569063        0.3061838181
 C         -6.8641077013       -1.6972542791        0.2394861218
 C         -7.0539177354       -0.2617252987        0.3616314447
 C         -8.3117267515        0.2898760189        0.6229831067
 C         -8.5026172938        1.6454248452        0.7764717871
 C         -7.4190364414        2.5172820498        0.6853807876
 C         -6.1680688554        2.0223582460        0.4245837962
 C         -5.9497421703        0.6414643315        0.2444355453
 C         -4.6798705886        0.0809319272       -0.0103057329
 C         -3.4621912172        2.8049826742       -1.2471902081
 C         -3.1136520996        4.1428226523       -1.2439172839
 H         -2.1302144438        5.7201320995       -0.1833746747
 H         -1.4881876832        4.2828004968        1.7161841705
 H         -2.1031921215        1.8889084014        1.7169782583
 H         -0.9631944168       -2.4847162572       -0.0947547365
 H          1.4683290419       -2.5348542450       -0.1641081298
 H          3.4175017115       -2.5316825218       -0.7709255122
 H          5.8200204746       -2.5039443575       -0.5153379339
 H          8.1568427842       -2.4435186074       -0.1380667697
 H         10.7971629006       -2.4802239179        0.2625586902
 H         12.7847179709       -1.0552610138        0.7368759210
 H         12.5114659741        1.3934145568        0.9753992488
 H         10.2498514285        2.4142819894        0.7383291921
 H          5.7493995074        1.7379938369        0.0128211021
 H          3.3174871386        1.7377891208       -0.2270346033
 H          1.4826582963        1.6528597611       -1.1586551997
 H         -0.9110004654        1.6877978504       -1.0952969678
 H         -4.3479988812       -3.9623135002       -0.1528753594
 H         -6.2650984568       -5.5489099292       -0.0031933219
 H         -8.5482494627       -4.6487595690        0.2751605677
 H         -8.9366204984       -2.2693987784        0.4249986018
 H         -9.1698667100       -0.3551839862        0.7207341572
 H         -9.4904874789        2.0310007513        0.9790606639
 H         -7.5632768587        3.5782606009        0.8249775144
 H         -5.3321526662        2.7001128553        0.3729665068
 H         -4.0158391925        2.3778713748       -2.0704760460
 H         -3.3946915073        4.7698535325       -2.0765854455
  70
  -110.168276872000       9.834022819209167E-003 !
 C         -2.8516247754        4.9091422388        0.3079085081
 C         -3.1155683524        4.2609171205        1.5036999531
 C         -3.3080673874        2.8912904348        1.5248631224
 C         -3.2350152724        2.1677373405        0.3385644643
 N         -3.4308341757        0.7718351837        0.3567400332
 C         -2.4942489761       -0.2007262801        0.7462448247
 C         -1.1368792436       -0.0253845423        1.0469434278
 C         -0.3876302756       -1.1983640310        1.3807836586
 C          0.9627584711       -1.1790694356        1.4837849478
 C          1.7187497751        0.0062723511        1.2317242359
 C          3.1302955022       -0.0203434681        1.0870489269
 C          3.8264444822        1.0118766812        0.3966862520
 C          5.1506667074        0.9035693668        0.0940810315
 C          5.9008770836       -0.2283348877        0.4789811091
 C          7.2549918510       -0.3618865757        0.0468188832
 C          8.1467546392       -1.4170925680        0.2758348807
 N          9.2797039043       -1.1125788135       -0.3911642525
 C         10.4501714654       -1.7804533425       -0.5276200318
 C         11.4437077914       -1.2420860216       -1.2921025607
 C         11.2577429062       -0.0010530868       -1.9321096089
 C         10.0792509755        0.6820850923       -1.7941590039
 C          9.0559178872        0.1267198071       -1.0110636957
 N          7.8500963308        0.5740466744       -0.7457546210
 C          5.2490001505       -1.2136314716        1.2501190198
 C          3.9191892565       -1.1157910532        1.5373924518
 C          0.9546129809        1.1974989231        1.0429570314
 C         -0.4014772028        1.1930945761        0.9676742276
 N         -3.0424773929       -1.4260809918        0.6754023818
 C         -4.2793173466       -1.2702038356        0.2166797633
 C         -5.2284339594       -2.2875984457       -0.0935598736
 C         -4.9189322762       -3.6358125242        0.1015186802
 C         -5.8245976754       -4.6136615274       -0.2377904228
 C         -7.0504181581       -4.2441921842       -0.7825997547
 C         -7.3670259326       -2.9165940286       -0.9743361705
 C         -6.4738792979       -1.8911113499       -0.6329012454
 C         -6.7835211477       -0.4820809158       -0.8063023466
 C         -8.0202122128       -0.0597001813       -1.3036834713
 C         -8.3360768874        1.2724653134       -1.4532396015
 C         -7.4147507973        2.2539203629       -1.0911358029
 C         -6.1868033443        1.8872787145       -0.6058833706
 C         -5.8315234440        0.5308201304       -0.4648551827
 C         -4.5724934236        0.1013156192        0.0050883960
 C         -2.9710183370        2.8176268760       -0.8637344917
 C         -2.7797255608        4.1870693009       -0.8729196199
 H         -2.7012449759        5.9778932205        0.2959879715
 H         -3.1724170811        4.8228077992        2.4238300493
 H         -3.5103652649        2.3732539287        2.4506289827
 H         -0.9435406889       -2.1119895030        1.5148566772
 H          1.4802948800       -2.1001423544        1.6993034205
 H          3.2813020022        1.8743546060        0.0472509129
 H          5.6591670634        1.6684279788       -0.4713105250
 H          8.0419148784       -2.3197591154        0.8417200656
 H         10.5380685695       -2.7277184905       -0.0173102838
 H         12.3739815356       -1.7741414028       -1.4051422858
 H         12.0549732075        0.4056905464       -2.5341189922
 H          9.9009726499        1.6318962827       -2.2689812902
 H          5.8110509139       -2.0627642995        1.6094302698
 H          3.4596370785       -1.8835345250        2.1401211231
 H          1.4702046846        2.1433666117        0.9781588144
 H         -0.9179057730        2.1274251015        0.8237197884
 H         -3.9526073988       -3.8758667714        0.5166346548
 H         -5.5884243283       -5.6567033184       -0.0901450669
 H         -7.7646597162       -5.0058479894       -1.0601558074
 H         -8.3291796739       -2.6825211977       -1.4010976701
 H         -8.7639206869       -0.7894120645       -1.5802516687
 H         -9.3018797583        1.5564932212       -1.8434580441
 H         -7.6678868630        3.2987452380       -1.1917525351
 H         -5.4817498370        2.6498779579       -0.3182684600
 H         -2.9188010299        2.2429962906       -1.7765670835
 H         -2.5719412894        4.6912866015       -1.8045936209
