  70
       -110.58933238
 C         -2.5364981465        4.7355172101        0.0131089769
 C         -2.3479052055        3.9762186186        1.1567033907
 C         -2.6566999586        2.6284845643        1.1564247492
 C         -3.1574285442        2.0367660673        0.0004879390
 N         -3.4622900203        0.6625830621       -0.0049291131
 C         -2.5337797690       -0.3910331074        0.0600428415
 C         -1.1341096780       -0.3068035730        0.0352383790
 C         -0.3976340511       -1.5030209661        0.3006267729
 C          0.9577242549       -1.5238222556        0.3023347904
 C          1.7337221226       -0.3551394561        0.0360180868
 C          3.1548599479       -0.3651376940        0.0446119503
 C          3.8992078606       -1.5753294984       -0.0256878056
 C          5.2635215862       -1.5852857424       -0.0405954448
 C          6.0022578465       -0.3856498916        0.0271188822
 C          7.4300770011       -0.3616774791        0.0039844527
 C          8.3210401356       -1.4398906571       -0.0685355501
 N          9.5625757121       -0.9113350949       -0.0703544815
 C         10.7861411959       -1.4898145417       -0.1267671366
 C         11.9004964096       -0.7028888936       -0.1168369678
 C         11.7823257153        0.6991183631       -0.0479091399
 C         10.5487893763        1.2904231430        0.0114779030
 C          9.4024887257        0.4812573945        0.0013656103
 N          8.1307037502        0.8065312911        0.0468423350
 C          5.2796109780        0.8230099716        0.1156362522
 C          3.9164898511        0.8348602817        0.1193515315
 C          0.9901168122        0.8248496040       -0.2634594141
 C         -0.3682113409        0.8542563730       -0.2711192855
 N         -3.1725767901       -1.5718910358        0.1046851933
 C         -4.4736119505       -1.3088369977        0.0418243217
 C         -5.5514034409       -2.2415472881        0.0103587748
 C         -5.3065873382       -3.6167548096        0.0317802683
 C         -6.3506212098       -4.5106091984       -0.0258795373
 C         -7.6529444039       -4.0290029007       -0.1122087007
 C         -7.9051188068       -2.6739751322       -0.1303354930
 C         -6.8685942884       -1.7324970561       -0.0629144476
 C         -7.1028867316       -0.2984358872       -0.0472731219
 C         -8.3965222357        0.2316718380       -0.0537737718
 C         -8.6360778295        1.5870946525        0.0016246108
 C         -7.5699471267        2.4814352464        0.0823209105
 C         -6.2839750797        2.0082296810        0.0797625055
 C         -6.0119633504        0.6273836049       -0.0017163877
 C         -4.7072472128        0.0902500071       -0.0127215980
 C         -3.3488580798        2.7989876105       -1.1494052986
 C         -3.0369689294        4.1457561974       -1.1371929361
 H         -2.2927907678        5.7869008981        0.0173079473
 H         -1.9607794577        4.4350455347        2.0538851185
 H         -2.5088101701        2.0246738802        2.0393078491
 H         -0.9687272427       -2.3903774600        0.5210133126
 H          1.4603903744       -2.4454365404        0.5501936551
 H          3.3746103875       -2.5142132440       -0.1093677644
 H          5.7876251151       -2.5264996904       -0.1137010554
 H          8.1494711886       -2.4954269407       -0.1163163997
 H         10.8184817297       -2.5676201926       -0.1785345453
 H         12.8746467554       -1.1613879178       -0.1623876261
 H         12.6760633995        1.3030931397       -0.0417182304
 H         10.4202615311        2.3581929416        0.0652616445
 H          5.8463663374        1.7382281948        0.1842159766
 H          3.4059618966        1.7798738922        0.2172199998
 H          1.5212734949        1.7213683059       -0.5430592926
 H         -0.8663736785        1.7666716267       -0.5547276591
 H         -4.2806761862       -3.9449510208        0.0903716341
 H         -6.1652708816       -5.5739922915       -0.0088948510
 H         -8.4788536453       -4.7233859881       -0.1657629937
 H         -8.9315237375       -2.3513345162       -0.2009340079
 H         -9.2466003541       -0.4299265541       -0.0952620165
 H         -9.6508070128        1.9556684546       -0.0053836698
 H         -7.7564498294        3.5428999395        0.1498428324
 H         -5.4647287829        2.7038199240        0.1571763779
 H         -3.7396865514        2.3275986652       -2.0391650859
 H         -3.1817505202        4.7355874707       -2.0297680751
