97
 energy: -157.676012749794 gnorm: 0.000059078899 xtb: 6.7.1 (edcfbbe)
C           -9.72838857064178       -3.06538878957569       -3.57931164997946
C          -10.43592358601823       -2.20167560106189       -2.75652720590757
C           -9.76540535849967       -1.37362184811209       -1.87815176656769
C           -8.37112817451241       -1.39941005538014       -1.81101696285664
C           -7.66198790665068       -0.52717593469174       -0.88072849593910
N           -8.39671210850143        0.30098299340378       -0.10943751948055
C           -7.70471577285030        1.08102698041806        0.74604190725508
C           -8.45866294742351        1.99691951970236        1.59601833096483
C           -7.79994009524215        2.80890411237753        2.52162957911925
C           -8.51686170570763        3.67414304471031        3.32291799115446
C           -9.89854210152618        3.74456226594693        3.21329901588377
C          -10.56027141850173        2.94197197375750        2.29599085613324
C           -9.84858989532557        2.07403774072121        1.49149420728882
N           -6.39966936803189        1.05410181683275        0.85494908632654
C           -5.70519793311413        0.21289060312219        0.04754374431491
C           -4.28885364578317        0.16788086492166        0.13051851490065
C           -3.53682060000675       -0.69333968007748       -0.70027624263999
C           -2.17037263766605       -0.73454766172578       -0.61988848069800
C           -1.48849924858802        0.08070029358524        0.29521386291879
N           -0.09164025224821        0.03752443018388        0.37813302054281
C            0.74937598866506        1.12659282637986        0.36201125484695
C            0.45350102280257        2.47789431721629        0.21822342394123
C            1.50137126170777        3.37411918683179        0.21205142538344
C            2.83691200889391        2.96230246273508        0.34640718534805
C            3.91907690672651        3.95167125269495        0.34443538585087
C            5.01601260084344        3.80003394112753        1.20570375197284
C            6.04577178511693        4.71610475573228        1.22621115701789
C            5.98895600051863        5.80102844856609        0.36392283571524
S            7.18746735613799        7.06518914799326        0.21974173341583
C            6.24217648826390        7.85191259893362       -1.03145135958594
C            6.58576106421928        9.02046947065550       -1.69042624318759
C            5.72369005199905        9.50867063032283       -2.65496014169187
C            4.54084783808103        8.84004673804059       -2.95502985425434
C            4.20116962909800        7.67474664876589       -2.29676110815247
C            5.05246070648226        7.16339774885266       -1.32165882723657
C            4.90432261045015        5.97754425472476       -0.51418754454604
C            3.87304741944353        5.04879705082785       -0.51030203727072
C            3.12888260431526        1.60272717699394        0.46868213690375
C            2.09371190182595        0.68787052993871        0.46512043056572
C            2.04331098272128       -0.74976786805202        0.54531266293833
C            3.01131275892876       -1.72761147359103        0.66966992044791
C            2.62265149672666       -3.06667010568495        0.73830914108694
C            3.62988790258818       -4.12536342218632        0.85475502508236
C            4.77465750871652       -3.93297970271002        1.64286556298582
C            5.73285889840106       -4.91535930392189        1.77067561403921
C            5.55373612411688       -6.11273575167365        1.09386472259477
S            6.64354125198579       -7.47859509148480        1.11383351358854
C            5.58278497591051       -8.37159270439265        0.03909776975575
C            5.80375520447855       -9.65492355413531       -0.43205921909722
C            4.86388524012746      -10.21538818283732       -1.27731150020765
C            3.72439632168968       -9.50547366826934       -1.64313249640267
C            3.50650249663162       -8.22624347521085       -1.17096020201451
C            4.43804629330772       -7.64017182084069       -0.31901637287901
C            4.41899052554482       -6.33382295514186        0.29245648882429
C            3.46247885618527       -5.33420039507608        0.18509201772905
C            1.25688251403828       -3.39288946972252        0.70470063820365
C            0.27543473217033       -2.43139138839963        0.59130150658736
C            0.67111145895428       -1.10181381971406        0.48920485881407
C           -2.22105302355523        0.93913838959246        1.12798143418838
C           -3.58721079350714        0.98380314076172        1.04686065855171
N           -6.35395407165120       -0.58450851270709       -0.83800040542457
C           -7.66626219892425       -2.27245438561061       -2.64239634120727
C           -8.34225706075969       -3.09768710548606       -3.51803088508692
H          -10.25503104294543       -3.71198783267672       -4.26562110004013
H          -11.51512405014070       -2.17498353263680       -2.80185493006259
H          -10.30182613975646       -0.69668885068755       -1.23085967131854
H           -6.72506376494891        2.74279639838868        2.59552046698777
H           -7.99964377990394        4.29856392198422        4.03705391852250
H          -10.45730055502993        4.42243999514206        3.84154366216373
H          -11.63589635276555        2.99532409726477        2.20875477330339
H          -10.34876570012951        1.44437566786440        0.77152115078292
H           -4.06877276572372       -1.30895503754109       -1.40912071324896
H           -1.60385031442280       -1.37228057808048       -1.28288184556436
H           -0.56501705827340        2.81633313398016        0.10791411414565
H            1.28648243582144        4.42825916938252        0.12430788793995
H            5.04069296426989        2.96257249818045        1.88603140723911
H            6.88045462074307        4.59858944213840        1.90004248940134
H            7.50494683449763        9.53328669874813       -1.45207637778607
H            5.97276985790122       10.41860197937949       -3.17991462897205
H            3.88207831295427        9.23868686980946       -3.71207081693672
H            3.28319958815126        7.15869503487966       -2.53361037445814
H            3.04789770429824        5.16669908804649       -1.19549907447814
H            4.15273072360737        1.26817928101165        0.53128699295132
H            4.05624787501873       -1.45996203085731        0.68699764903896
H            4.89470322181657       -3.00661690034102        2.18322490705854
H            6.60550517167297       -4.76358840620414        2.38713052102218
H            6.68990342775619      -10.19875694627175       -0.14284441139232
H            5.01746727958628      -11.21464249276226       -1.65616189547624
H            3.00327939870993       -9.96185061666815       -2.30479386318005
H            2.62125118847845       -7.67931677322782       -1.45766589683607
H            2.59974220706705       -5.48909342109522       -0.44413379352215
H            0.96519116805831       -4.42736709230597        0.80397131119991
H           -0.76917532314946       -2.70178578252604        0.59890721761767
H           -1.69777242105973        1.54248502928514        1.85554133475734
H           -4.15918695862325        1.63358145206569        1.69108414414095
H           -6.58851348919231       -2.28619814272265       -2.58368393196300
H           -7.78945726483607       -3.77034374657983       -4.15784845094710
