97
 energy: -157.675955448410 gnorm: 0.000071677470 xtb: 6.7.1 (edcfbbe)
C           -9.59769667642814       -3.32565544295754       -3.69179608405393
C          -10.33579212665682       -2.49149838740168       -2.86536884586694
C           -9.69704308279633       -1.67645669084486       -1.95192578359413
C           -8.30439494907635       -1.68532839969810       -1.85315753799992
C           -7.62986805261387       -0.82487382480965       -0.88678587921998
N           -8.39764503199748       -0.05641464177720       -0.08667379675414
C           -7.73859915747453        0.72055259432272        0.79708639266241
C           -8.53044797852718        1.57052087204051        1.68028540654313
C           -7.90434320634032        2.42064141368807        2.59424088046803
C           -8.65733494893423        3.22446824154655        3.42584924935497
C          -10.04325163767842        3.19331551014009        3.35975685998199
C          -10.67286695454228        2.35114453743124        2.45537046540665
C           -9.92502100452986        1.54484979231296        1.62016620100351
N           -6.43333952316394        0.74665556558170        0.90340523494661
C           -5.70514615811925       -0.03872924774771        0.06992158063362
C           -4.28803115702184       -0.02654002067715        0.15214918487208
C           -3.50122963177844       -0.84025673027083       -0.69418651651643
C           -2.13404965186969       -0.82445777881856       -0.61554246869475
C           -1.48641439540776        0.00453126520134        0.31181674877344
N           -0.08851530207672        0.02265656998810        0.38999903661659
C            0.70297353788343        1.14808493921864        0.37896539745400
C            0.34546261798337        2.48594783564550        0.25074650475707
C            1.35205630264061        3.42824440713602        0.24603695918170
C            2.70563272905710        3.07545331817192        0.36742408219529
C            3.74133266795648        4.11345251698431        0.36717066950519
C            4.84932049245561        4.00638742619415        1.22091297039822
C            5.83396433352723        4.97074859011911        1.24475678579315
C            5.72029178928673        6.05954731991302        0.39303715151705
S            6.85464556643307        7.38234877191912        0.25671967479275
C            5.86714307888909        8.13313561074521       -0.98375988129122
C            6.15133852973218        9.32254580611801       -1.63359598943244
C            5.26262974410339        9.77714268703657       -2.59034009192522
C            4.11176914849066        9.05520507233399       -2.89133299639060
C            3.83139781594366        7.86915703367990       -2.24220105756020
C            4.71084965200945        7.39046540158311       -1.27553409875657
C            4.62408202626253        6.19149239492147       -0.47850341910393
C            3.63872358420009        5.21412950630796       -0.47809497754576
C            3.05920880446943        1.72942870301011        0.47607737173172
C            2.06612715750162        0.76893401371447        0.47062447716607
C            2.08015598744567       -0.67025411272784        0.53927157233797
C            3.09081708083777       -1.60561238531084        0.65123671104645
C            2.76153135763548       -2.96087447216819        0.71342035503414
C            3.81408181491681       -3.97577110352440        0.81856604526790
C            4.95531243778002       -3.73825444665841        1.59953276066175
C            5.95466042483288       -4.68011608649046        1.71742074332177
C            5.82076557915949       -5.88210635572676        1.03833489685106
S            6.96541118451684       -7.20241306232646        1.04817864492252
C            5.93474931635683       -8.13603972419768       -0.02139183296298
C            6.20402474036501       -9.40889288917962       -0.49586031401918
C            5.28192591613727      -10.00567493341228       -1.33582280985781
C            4.11248487073892       -9.34173586897339       -1.69323721354822
C            3.84628061212077       -8.07299153624183       -1.21759956068151
C            4.75898107731297       -7.45107123113832       -0.37069031984953
C            4.69077663572526       -6.14780776052162        0.24382332906437
C            3.69311542140673       -5.18835948193907        0.14556020106029
C            1.41114206996271       -3.34654401320575        0.68449282906106
C            0.38791137229180       -2.42849785625853        0.58186047384743
C            0.72454551705534       -1.08226515530905        0.48767311083118
C           -2.25341957583126        0.81575869385265        1.16051083893758
C           -3.62048381126012        0.80150502557692        1.08298849392859
N           -6.32070595316773       -0.83338598318294       -0.84174022701049
C           -7.56857167865232       -2.52778013390815       -2.68914696693194
C           -8.21298700862971       -3.34055254816016       -3.59963290619667
H          -10.09944970353921       -3.96233874571091       -4.40549117315082
H          -11.41389479287232       -2.47752786379464       -2.93547068254560
H          -10.25713291572798       -1.02112633086826       -1.30237744010267
H           -6.82572615844074        2.43382837931837        2.63372778827594
H           -8.16520146899639        3.87973203020428        4.13001833611179
H          -10.63020129930659        3.82341724987486        4.01160111122523
H          -11.75172868426136        2.32481705929939        2.40270533798552
H          -10.40012976245731        0.88418228518230        0.91096385429576
H           -4.00754148288924       -1.46571282336638       -1.41310239441918
H           -1.54161136436658       -1.42698075855588       -1.28881726048509
H           -0.68820295581364        2.77889792996391        0.15111112259544
H            1.08977217585929        4.47254220862367        0.17001137614059
H            4.91782882946053        3.16495132238990        1.89332142433001
H            6.67738208019696        4.88744779623478        1.91281730009029
H            7.04600249824883        9.87662878420487       -1.39429042440374
H            5.46564214086151       10.70245166130233       -3.10825080504485
H            3.43106653991952        9.42841804988256       -3.64196106880061
H            2.93806297720516        7.31185567480425       -2.47982493763487
H            2.80521667244029        5.29815833592067       -1.15817050667361
H            4.09741555685100        1.44069052059480        0.52953967453121
H            4.12313366171791       -1.29257206683868        0.66476831960354
H            5.04034029265063       -2.80956788044648        2.14252885923767
H            6.82464674484286       -4.49392749433743        2.32821265642946
H            7.11306184341896       -9.91715973008879       -0.21317722049742
H            5.47272953390999      -10.99761282571302       -1.71694674956748
H            3.40614072701170       -9.82594928775076       -2.35098795034490
H            2.93786271312614       -7.56187735662752       -1.49779154601750
H            2.83371723699170       -5.37726052660861       -0.47890770034367
H            1.16550413733193       -4.39332285983460        0.77879088769112
H           -0.64393189650722       -2.74417515699104        0.59170341191426
H           -1.75486901594303        1.42917657154744        1.89699487317727
H           -4.21863605232600        1.41383762007618        1.73995756344630
H           -6.49232661800345       -2.52833085874487       -2.60619750618801
H           -7.63655304636058       -3.98991183336265       -4.24265194611377
