97
 energy: -157.754300453057 gnorm: 0.000030881139 xtb: 6.7.1 (edcfbbe)
C           -8.99445306015133       -3.56402599221597       -3.61185004152151
C           -9.77466448029953       -2.73961897249998       -2.81522276502548
C           -9.17658267471484       -1.86382800191317       -1.92963960206426
C           -7.78673115129673       -1.80632503817691       -1.83331539009582
C           -7.15132146891970       -0.87898230480813       -0.89641198983521
N           -7.93729228143942       -0.07816019248689       -0.18057048783103
C           -7.31899494465102        0.75114652275337        0.65681353337915
C           -8.14246092148438        1.65089043469306        1.46525264398346
C           -7.54650004911028        2.51100741177843        2.38685998665008
C           -8.32700617638267        3.35877628079859        3.14909424961643
C           -9.70557357132875        3.35797963496124        2.99905154858137
C          -10.30431961312292        2.50506133026626        2.08413133609520
C           -9.52914183668107        1.65454672131638        1.31944786849760
N           -5.99783206239080        0.81191967480778        0.80373233155304
C           -5.28865033090926       -0.02681154147918        0.05160424988226
C           -3.83390701832485       -0.00113930034862        0.18008706139401
C           -3.04398869407963       -0.86250569329394       -0.58207914521822
C           -1.67122876862108       -0.83946651815292       -0.46548830968705
C           -1.05737391251437        0.04599250903932        0.42199872130057
N            0.33369420308402        0.06982388214900        0.54037369303035
C            1.13253975101245        1.19878357307585        0.50575371704917
C            0.78767124549793        2.52816178074129        0.30728707682918
C            1.80178903727712        3.46407265915656        0.27462171960840
C            3.14902131465463        3.10988123925797        0.42977529759357
C            4.19486460482693        4.14437796205279        0.39356475752518
C            5.26911107866410        4.09002368167479        1.29086576825803
C            6.26710773001177        5.04251327142405        1.27740695250320
C            6.19369982168150        6.06750635219557        0.34830563658398
S            7.35136865389532        7.36803825542907        0.15382387436468
C            6.40887659908839        8.03957259040275       -1.16307874394896
C            6.72405236224328        9.17894481624223       -1.88504939520883
C            5.86900009702523        9.57481103733157       -2.89622276536977
C            4.71900423574576        8.84432782843884       -3.18125126702512
C            4.40755509791160        7.70889745327593       -2.46110391179431
C            5.25280006341986        7.28942120575730       -1.43743240719773
C            5.12831332701374        6.14952815604600       -0.56383271416016
C            4.13278542896827        5.18040810429532       -0.52892940572220
C            3.49000896481016        1.77423952824763        0.60536625511678
C            2.48745740279290        0.81790693265982        0.63555633720556
C            2.49915728057209       -0.61433684934743        0.76522224149462
C            3.51386154399199       -1.54100113181904        0.94645180463916
C            3.19034319970113       -2.88757189135275        1.05959519106687
C            4.24642974522288       -3.89600864607830        1.24156048899598
C            5.32359833207018       -3.64414716617386        2.10068812630333
C            6.32445464998653       -4.57441356397891        2.29135793248040
C            6.25103081032398       -5.77776496201822        1.60889474892288
S            7.40872472193773       -7.08918051225755        1.70361242242383
C            6.46407834058030       -8.03436266783380        0.56878638516064
C            6.77743467056043       -9.30565281935411        0.11668980445159
C            5.92101459413803       -9.91441547448634       -0.78122978540048
C            4.77145895294144       -9.26379149623656       -1.21992736373284
C            4.46121443021151       -7.99726380836272       -0.76782773789256
C            5.30789618714558       -7.36260516866084        0.13701901279272
C            5.18409756556498       -6.05868229185815        0.73908542217539
C            4.18562215870299       -5.10771235814234        0.56603063896792
C            1.84594688682084       -3.28175365076107        1.01265859715010
C            0.82016666752602       -2.37448982134366        0.84080951955784
C            1.15182662499702       -1.03481153853708        0.69502127666345
C           -1.84475508744523        0.90672675776241        1.18837347647404
C           -3.21723810136517        0.88361630488376        1.06535024808104
N           -5.82350596890639       -0.88791904747254       -0.81152094185936
C           -7.00785924252516       -2.63844513539599       -2.63660690715711
C           -7.61170612233628       -3.51175494963323       -3.52074929895813
H           -9.46421841059653       -4.24747062964727       -4.30363032249817
H          -10.85149497342070       -2.78080543352850       -2.88601983980073
H           -9.76769083132066       -1.21567299999721       -1.30164610477598
H           -6.47280154207879        2.49773560164078        2.49076034203937
H           -7.86116182739327        4.02275989173875        3.86218715316212
H          -10.31353951027616        4.02171485368567        3.59583683044724
H          -11.37795481576276        2.50491496150740        1.96734543746791
H           -9.97758100717884        0.98491496897631        0.60219366386294
H           -3.52781990075993       -1.53828866838589       -1.26943137904823
H           -1.06245080141416       -1.49045579125382       -1.07430506841685
H           -0.24018590580297        2.82801623422399        0.17149867234486
H            1.54809286446371        4.50552481932407        0.14324643666038
H            5.30600126299010        3.29577388022189        2.02133711406137
H            7.08855156632214        4.99669557457967        1.97614438333682
H            7.61786370498386        9.73965046927721       -1.65761895888176
H            6.09725585290696       10.46063079312788       -3.46995496778303
H            4.06436661923884        9.17129918189351       -3.97559227143430
H            3.51544589174514        7.14381832760012       -2.68553984536232
H            3.32127702651204        5.22531061606885       -1.23927560746030
H            4.52513161353601        1.47947914802327        0.68708711143497
H            4.54374478876446       -1.21985004909457        0.97996045698494
H            5.35978759361985       -2.71030266214995        2.64140376859952
H            7.14766475044257       -4.37575068140467        2.96068807614481
H            7.67077649186063       -9.80312823857894        0.46216855175644
H            6.14778192573340      -10.90536896455320       -1.14526464146489
H            4.11621360754501       -9.75748311004526       -1.92218037912456
H            3.56903085955222       -7.49533477959594       -1.11055351649559
H            3.37098973930253       -5.30799643216936       -0.11326084627127
H            1.60463604284236       -4.32640912970923        1.14222544646011
H           -0.20818031637598       -2.70236655707617        0.83741160222849
H           -1.37272528594136        1.57576277684910        1.89173003536545
H           -3.83467685951380        1.54075368055974        1.65713255829330
H           -5.93366057135333       -2.58412562233878       -2.55328062974287
H           -7.00446148691848       -4.15389941618513       -4.14144883979868
