  97
       -157.60169617
 C         -9.5732029670       -3.2023398595       -3.8026053905
 C        -10.3168185817       -2.4301092072       -2.9231271192
 C         -9.6826450436       -1.6474229789       -1.9794032267
 C         -8.2890076777       -1.6294958990       -1.9055170812
 C         -7.6190198220       -0.8028657219       -0.9109493750
 N         -8.3833086904       -0.0559522829       -0.0885772613
 C         -7.7346367834        0.6965181038        0.8212367985
 C         -8.5292918005        1.5172286832        1.7256870985
 C         -7.9072888294        2.2911692513        2.7067302533
 C         -8.6647947168        3.0660518452        3.5606302992
 C        -10.0477151508        3.0805568546        3.4487008335
 C        -10.6712892777        2.3140561984        2.4759551701
 C         -9.9203807610        1.5356666593        1.6181257737
 N         -6.4318858735        0.7143718450        0.9258359918
 C         -5.6926444315       -0.0425990045        0.0777263698
 C         -4.2783599256       -0.0300687956        0.1644599369
 C         -3.4906441514       -0.8353230222       -0.6875428338
 C         -2.1241795740       -0.8180772001       -0.6031657723
 C         -1.4826070855        0.0046695200        0.3326874805
 N         -0.0846318985        0.0251876492        0.4128788731
 C          0.7050724730        1.1512062161        0.4060909366
 C          0.3442540657        2.4879148980        0.2873966050
 C          1.3491603236        3.4315503244        0.2808932371
 C          2.7033754119        3.0802011339        0.3913832606
 C          3.7367150271        4.1215216859        0.3805984118
 C          4.8471787136        4.0256643686        1.2305304810
 C          5.8308997467        4.9913584280        1.2394803998
 C          5.7115315443        6.0700446755        0.3773828987
 S          6.8425163539        7.3933306815        0.2213000166
 C          5.8487088044        8.1279136818       -1.0208361053
 C          6.1258558987        9.3109688347       -1.6848648635
 C          5.2329960317        9.7515459640       -2.6432308242
 C          4.0835012206        9.0229223438       -2.9327465440
 C          3.8090708775        7.8444317721       -2.2691458009
 C          4.6929815095        7.3797935344       -1.2999779283
 C          4.6119461169        6.1907057479       -0.4900941365
 C          3.6284574637        5.2114011195       -0.4751432468
 C          3.0602732308        1.7374876272        0.4932788665
 C          2.0687392162        0.7737888408        0.4893699698
 C          2.0857228778       -0.6632920045        0.5479929425
 C          3.0987485506       -1.5989312631        0.6475943512
 C          2.7723727051       -2.9523951308        0.7066061823
 C          3.8261128911       -3.9675843326        0.8051416329
 C          4.9723548689       -3.7281586577        1.5765586269
 C          5.9730562704       -4.6690158733        1.6903278989
 C          5.8322504634       -5.8743114491        1.0205963306
 S          6.9729323700       -7.1979213658        1.0329859899
 C          5.9294927830       -8.1380911420       -0.0147554651
 C          6.1868101589       -9.4184367912       -0.4750438342
 C          5.2523143411      -10.0224300530       -1.2946860844
 C          4.0823128468       -9.3579837472       -1.6490813319
 C          3.8283898377       -8.0816484868       -1.1894353730
 C          4.7534158199       -7.4525833129       -0.3616925225
 C          4.6957944194       -6.1433944693        0.2380793529
 C          3.7001255369       -5.1815672503        0.1387692321
 C          1.4227711656       -3.3400122938        0.6848540276
 C          0.3975578547       -2.4239994274        0.5890742563
 C          0.7312455718       -1.0777281966        0.5001369510
 C         -2.2516186693        0.8078611909        1.1856818750
 C         -3.6182049245        0.7908232252        1.1054743863
 N         -6.3131133405       -0.8072860506       -0.8529791745
 C         -7.5459441313       -2.4091625047       -2.7937019725
 C         -8.1873293538       -3.1886216055       -3.7342060635
 H        -10.0718534060       -3.8135493759       -4.5404400068
 H        -11.3958438901       -2.4408873751       -2.9769644654
 H        -10.2466943491       -1.0413587614       -1.2877020561
 H         -6.8311385338        2.2681579466        2.7823270001
 H         -8.1799816038        3.6630249570        4.3195025927
 H        -10.6375833280        3.6885281801        4.1188860384
 H        -11.7480815830        2.3263291993        2.3890560527
 H        -10.3900217673        0.9339781364        0.8556748106
 H         -3.9930255555       -1.4557630457       -1.4128359700
 H         -1.5246513346       -1.4141126149       -1.2761925959
 H         -0.6902050552        2.7794346977        0.1936858239
 H          1.0871017092        4.4764443701        0.2104220171
 H          4.9196801634        3.1897633609        1.9098542754
 H          6.6780075361        4.9157434142        1.9035584648
 H          7.0194673927        9.8697618445       -1.4543942280
 H          5.4309568830       10.6712228172       -3.1725321529
 H          3.3996683849        9.3851657060       -3.6855138219
 H          2.9167740590        7.2808706835       -2.4962397625
 H          2.7911784163        5.2863573525       -1.1519680067
 H          4.0998117872        1.4507601440        0.5408619085
 H          4.1308125758       -1.2833593743        0.6556753870
 H          5.0609866323       -2.7966953361        2.1146248562
 H          6.8480395378       -4.4794836531        2.2926689486
 H          7.0963976787       -9.9265211856       -0.1949845573
 H          5.4332643813      -11.0208384831       -1.6629426230
 H          3.3658313288       -9.8483786050       -2.2907707346
 H          2.9198120374       -7.5686303419       -1.4664523071
 H          2.8359151877       -5.3730229930       -0.4784760181
 H          1.1810594020       -4.3879635748        0.7781603280
 H         -0.6335317817       -2.7416567998        0.6008877762
 H         -1.7524716817        1.4163391722        1.9260583124
 H         -4.2193295246        1.3965595409        1.7651558309
 H         -6.4690509978       -2.3879115959       -2.7287620943
 H         -7.6089028008       -3.7907204903       -4.4199516751
