  49
  -80.8124641500000       8.488742733750303E-002 !
 C          5.9912165679       -0.0617484199        0.1543716224
 C          4.8890638007        0.8593952592        0.6730039739
 C          4.9621666384        0.9444060642        2.2007085435
 C          5.0312289838        2.2464408377        0.0388911007
 N          3.5796954463        0.2967105943        0.2921819768
 C          2.4012248612        0.8925046122        0.6193246641
 O          2.2678333030        1.9189464946        1.2502045360
 C          1.2611174212        0.0985807776        0.0852801346
 C         -0.0718436695        0.4174367453        0.2691570857
 C         -1.0447303959       -0.4174535879       -0.2889027511
 N         -2.3928702668       -0.1225071729       -0.1275989125
 C         -2.9791556378        1.1243119695       -0.3030346008
 C         -2.4124505748        2.3191999759       -0.7193316141
 C         -3.2440573922        3.4162849203       -0.8509628095
 C         -4.6086202651        3.3313470842       -0.5881091510
 C         -5.1829473976        2.1363713048       -0.2024027892
 C         -4.3666829967        1.0219590577       -0.0633166672
 C         -4.6261907179       -0.3483736427        0.2864732102
 C         -5.7777729936       -1.0336614193        0.6491269977
 C         -5.6774867311       -2.3745062640        0.9635817867
 C         -4.4462992804       -3.0236878826        0.9393798647
 C         -3.2868186259       -2.3609895667        0.5803179564
 C         -3.3870728860       -1.0227938228        0.2312666654
 C         -0.6564371609       -1.5509617844       -1.0136076702
 C          0.6821029264       -1.8685406789       -1.1817840856
 C          1.6254378683       -1.0306694418       -0.6273648820
 S          3.3992940698       -1.1229688066       -0.6447519976
 O          3.8765795814       -2.2557734589        0.0854193082
 O          3.9269725356       -0.9081901002       -1.9565880786
 H          5.9429189971       -0.1464759783       -0.9276630871
 H          5.8928983277       -1.0560127828        0.5810669724
 H          6.9600296763        0.3467282316        0.4323472378
 H          5.9349278766        1.3261261118        2.4986058503
 H          4.8231562740       -0.0428946449        2.6360389382
 H          4.1924045777        1.6101308571        2.5809301401
 H          6.0025922638        2.6648259996        0.2882886564
 H          4.2569981382        2.9127827574        0.4092676367
 H          4.9470874399        2.1713400485       -1.0432463893
 H         -0.3407830393        1.2834550658        0.8535798546
 H         -1.3603244997        2.3970577747       -0.9472262411
 H         -2.8236386726        4.3590472245       -1.1674071116
 H         -5.2232717314        4.2117485781       -0.6976207950
 H         -6.2435978314        2.0630617165       -0.0171082986
 H         -6.7275722114       -0.5226487145        0.6889991038
 H         -6.5609266869       -2.9277134702        1.2446022047
 H         -4.3929522651       -4.0672249214        1.2109113029
 H         -2.3357864917       -2.8718173326        0.5916743793
 H         -1.4158121294       -2.1714870214       -1.4647087878
 H          0.9826662498       -2.7407373505       -1.7401198965
  49
  -80.8124614300000       8.464344799720744E-002 !
 C          5.0382976229        2.2467977693       -0.0001481917
 C          4.8853169700        0.8750609967        0.6641910556
 C          5.9891815748       -0.0610451430        0.1767596495
 C          4.9440627883        0.9953597799        2.1901476686
 N          3.5779526244        0.3069078787        0.2844790636
 C          2.3986349508        0.9148789280        0.5845728339
 O          2.2633668050        1.9658164913        1.1732774288
 C          1.2602004048        0.1001515804        0.0796199751
 C         -0.0728510703        0.4303825298        0.2406401418
 C         -1.0446834454       -0.4288324608       -0.2808237416
 N         -2.3926576677       -0.1226707180       -0.1398663419
 C         -2.9735806248        1.1153526462       -0.3817443505
 C         -2.4008733055        2.2842327112       -0.8591186916
 C         -3.2278066838        3.3759042661       -1.0511902582
 C         -4.5932139678        3.3102980572       -0.7875057510
 C         -5.1731739180        2.1399359668       -0.3398395359
 C         -4.3618226289        1.0312494225       -0.1396454509
 C         -4.6271409500       -0.3174815704        0.2823509770
 C         -5.7814811015       -0.9779020087        0.6805844632
 C         -5.6864947804       -2.3003325687        1.0665504091
 C         -4.4579654438       -2.9549293940        1.0773343669
 C         -3.2957456479       -2.3169496195        0.6839755778
 C         -3.3906442260       -0.9987219826        0.2646674417
 C         -0.6556042333       -1.5969871232       -0.9474633371
 C          0.6831712746       -1.9248655978       -1.0934248163
 C          1.6256898092       -1.0629594676       -0.5755717646
 S          3.3994929330       -1.1620094810       -0.5734833458
 O          3.8649272805       -2.2538616374        0.2240583322
 O          3.9403319993       -1.0238520673       -1.8901650619
 H          4.2643323474        2.9247937591        0.3488636284
 H          4.9617984893        2.1472752738       -1.0808025815
 H          6.0098641474        2.6663231855        0.2467069642
 H          6.9564355884        0.3536043207        0.4504332760
 H          5.9478832878       -0.1740922525       -0.9029707333
 H          5.8873584623       -1.0436843044        0.6287578402
 H          5.9123198539        1.3874279378        2.4892216404
 H          4.8036760788        0.0177400338        2.6460825853
 H          4.1682142346        1.6668365335        2.5471840384
 H         -0.3429014859        1.3246653061        0.7804532496
 H         -1.3478866531        2.3453769788       -1.0880021771
 H         -2.8033060095        4.2985950848       -1.4170822693
 H         -5.2044806763        4.1856799507       -0.9466201380
 H         -6.2345411165        2.0807462246       -0.1536487256
 H         -6.7290287853       -0.4615820223        0.6933845238
 H         -6.5719056460       -2.8338778385        1.3773176604
 H         -4.4088158471       -3.9825655453        1.4046547390
 H         -2.3467116477       -2.8302415747        0.7219786952
 H         -1.4143229764       -2.2378450245       -1.3705427321
 H          0.9845421457       -2.8229462660       -1.6086149842
  49
  -80.8124522900000       8.382873124113915E-002 !
 C          5.9779493170       -0.3388512118        0.2714128562
 C          4.8432255287       -0.1447995980        1.2749433711
 C          4.8403107522       -1.2994482498        2.2817987635
 C          5.0043160177        1.2025655055        1.9857077399
 N          3.5597772320       -0.1446289841        0.5476648340
 C          2.3609958318        0.0001870811        1.1741876558
 O          2.1868370975        0.1345192167        2.3661736062
 C          1.2558366044       -0.0339573813        0.1779346799
 C         -0.0858467582        0.0869806964        0.4898198018
 C         -1.0236784053        0.0297134418       -0.5456807453
 N         -2.3803373597        0.1274138987       -0.2622131467
 C         -3.3060082378        0.9036828851       -0.9460534778
 C         -3.1129981490        1.8101526185       -1.9774754805
 C         -4.2188628010        2.4881077400       -2.4572419423
 C         -5.4871083300        2.2828898425       -1.9211921434
 C         -5.6792948649        1.4063547981       -0.8716044607
 C         -4.5829517992        0.7152250050       -0.3739677360
 C         -4.4193763249       -0.2258715630        0.7008375001
 C         -5.3074542631       -0.8083969557        1.5950332018
 C         -4.8202255786       -1.7202897272        2.5101501267
 C         -3.4715011966       -2.0646982695        2.5266009216
 C         -2.5694018069       -1.4975304531        1.6451233591
 C         -3.0482818578       -0.5589642624        0.7440016255
 C         -0.5916743675       -0.1357904069       -1.8672730549
 C          0.7565000625       -0.2409299145       -2.1710288974
 C          1.6640318071       -0.1927422801       -1.1349646983
 S          3.4368008249       -0.3049366378       -1.1509132030
 O          3.8809876609       -1.6038331538       -1.5513433519
 O          4.0321297456        0.8267887929       -1.7912721580
 H          5.8671729199       -1.2825532255       -0.2557053372
 H          6.9277616181       -0.3405734458        0.8011675712
 H          5.9847190685        0.4645322328       -0.4602578641
 H          5.7935187630       -1.3319583859        2.8026421346
 H          4.6892086729       -2.2446731157        1.7640571313
 H          4.0463777025       -1.1644760490        3.0111957594
 H          5.9589471274        1.2315532130        2.5039850267
 H          4.2071563034        1.3455625238        2.7101085102
 H          4.9727975830        2.0118391918        1.2594514190
 H         -0.3866667954        0.2426504010        1.5139807670
 H         -2.1320988639        1.9989423560       -2.3870055991
 H         -4.0933169871        3.1955938779       -3.2631086873
 H         -6.3263175690        2.8279728682       -2.3261727258
 H         -6.6574307065        1.2627985404       -0.4388983400
 H         -6.3560635302       -0.5549506029        1.5665148001
 H         -5.4921918639       -2.1831439419        3.2168735676
 H         -3.1200319728       -2.7936662272        3.2412118537
 H         -1.5312334945       -1.7920637838        1.6570193739
 H         -1.3261552153       -0.2059495959       -2.6552331353
 H          1.0906311808       -0.3719988531       -3.1879493208
  49
  -80.8124511100000       8.372412215146427E-002 !
 C          5.9802514869       -0.3498430583        0.0628144549
 C          4.8367384624       -1.1789062792       -0.5180054486
 C          4.9461507610       -1.2133553272       -2.0455566314
 C          4.8736044381       -2.5943870457        0.0663175515
 N          3.5557820287       -0.5468711839       -0.1494652291
 C          2.3516131328       -1.0522357698       -0.5306743048
 O          2.1707309226       -2.0531372319       -1.1900145515
 C          1.2505469387       -0.1931892037       -0.0163926667
 C         -0.0935596044       -0.4149709885       -0.2532352389
 C         -1.0259168430        0.4771907623        0.2849155548
 N         -2.3836925968        0.2845318878        0.0611697164
 C         -3.2910743853        1.2590494964       -0.3319967641
 C         -3.0789031277        2.5930952882       -0.6446770717
 C         -4.1674768269        3.3420379336       -1.0530588665
 C         -5.4370547303        2.7813899088       -1.1607387946
 C         -5.6476623595        1.4455327469       -0.8814867340
 C         -4.5689476783        0.6746748010       -0.4698670212
 C         -4.4253771412       -0.7164890158       -0.1357515202
 C         -5.3232512292       -1.7730685448       -0.0649035972
 C         -4.8554258637       -3.0119083560        0.3263278057
 C         -3.5169736737       -3.1972036676        0.6616684853
 C         -2.6052759489       -2.1592780066        0.5983596228
 C         -3.0640009868       -0.9205757455        0.1770838525
 C         -0.5873654607        1.5658616531        1.0484239355
 C          0.7629731040        1.7856289452        1.2707060566
 C          1.6658464856        0.8952867174        0.7309804403
 S          3.4410055159        0.8732035796        0.7966571974
 O          4.0054998347        1.9794768135        0.0878462598
 O          3.9224029926        0.6171386017        2.1185805068
 H          5.9067572847       -0.2999528553        1.1455801727
 H          5.9580133200        0.6629406722       -0.3296856526
 H          6.9282813741       -0.8104433016       -0.2048333899
 H          5.8980654429       -1.6505450836       -2.3340781675
 H          4.8865337055       -0.2036988562       -2.4459335286
 H          4.1433871870       -1.8099674670       -2.4696259214
 H          5.8249664740       -3.0630047135       -0.1704079832
 H          4.0719059671       -3.1972008058       -0.3511731131
 H          4.7604717139       -2.5535755816        1.1475354637
 H         -0.4004111938       -1.2491456865       -0.8647749880
 H         -2.0958461369        3.0362243114       -0.5916786432
 H         -4.0264977198        4.3840194159       -1.2980330011
 H         -6.2621854199        3.3998258763       -1.4799152201
 H         -6.6263489886        1.0030827872       -0.9865047818
 H         -6.3642662398       -1.6223833656       -0.3062618347
 H         -5.5353177040       -3.8482846888        0.3853485293
 H         -3.1819647003       -4.1720616155        0.9823488425
 H         -1.5751539745       -2.3143283757        0.8808892412
 H         -1.3181615418        2.2290240936        1.4858785366
 H          1.1024909743        2.6236048076        1.8585111170
  49
  -80.8124491500000       8.355065309619696E-002 !
 C          5.9834346693       -0.2160243804        0.2648264123
 C          4.8414720958       -0.1466036975        1.2765207506
 C          4.8508598991       -1.3976362789        2.1602642707
 C          4.9792279407        1.1234751967        2.1216726517
 N          3.5612757760       -0.0972441759        0.5453295419
 C          2.3589718095       -0.0038246052        1.1749708904
 O          2.1803536706        0.0817636402        2.3708395479
 C          1.2555243021       -0.0307139549        0.1766775046
 C         -0.0869311448        0.0822911396        0.4880654890
 C         -1.0239282624        0.0213224365       -0.5479762687
 N         -2.3809421846        0.1176161947       -0.2664948905
 C         -3.3054080313        0.8916897765       -0.9549281679
 C         -3.1116586091        1.7889368519       -1.9942275456
 C         -4.2163642006        2.4658382105       -2.4779956671
 C         -5.4842803633        2.2688145778       -1.9381936768
 C         -5.6769984064        1.4025170972       -0.8803512617
 C         -4.5817403167        0.7126575395       -0.3785865179
 C         -4.4191130981       -0.2190380734        0.7044407482
 C         -5.3072508357       -0.7882083414        1.6071241150
 C         -4.8213519969       -1.6922596617        2.5307332675
 C         -3.4742781172       -2.0430694838        2.5462606722
 C         -2.5721343238       -1.4888870714        1.6565508291
 C         -3.0491706307       -0.5568697414        0.7476089767
 C         -0.5901204427       -0.1443563369       -1.8690611584
 C          0.7588288867       -0.2402603839       -2.1724258041
 C          1.6656984444       -0.1852080496       -1.1361457020
 S          3.4393150305       -0.2834920019       -1.1508162964
 O          3.8944303481       -1.5856862036       -1.5292590862
 O          4.0246667186        0.8418906546       -1.8101133580
 H          5.9695815708        0.6512283377       -0.3894688946
 H          5.9005671217       -1.1092457505       -0.3478712902
 H          6.9317020887       -0.2413330638        0.7965810947
 H          4.7177105841       -2.2862907698        1.5466948536
 H          4.0489126675       -1.3485184761        2.8920379038
 H          5.8000167730       -1.4703749592        2.6843069925
 H          5.9326108977        1.1115719426        2.6429726121
 H          4.1792414830        1.1813023897        2.8542610463
 H          4.9382315082        2.0031010060        1.4829089040
 H         -0.3887204185        0.2361746871        1.5122811797
 H         -2.1308416259        1.9726931749       -2.4062016084
 H         -4.0898544268        3.1665378075       -3.2895402412
 H         -6.3225400131        2.8127909095       -2.3463782202
 H         -6.6548325674        1.2655291996       -0.4447779661
 H         -6.3546765013       -0.5300027176        1.5791987132
 H         -5.4931656207       -2.1442219732        3.2445936857
 H         -3.1242783642       -2.7671741519        3.2664596274
 H         -1.5355166841       -1.7890881218        1.6679965072
 H         -1.3236612633       -0.2217060824       -2.6571221764
 H          1.0939971523       -0.3692928041       -3.1892384666
  49
  -80.8124480400000       8.345257242429518E-002 !
 C          4.8900557829       -1.5553629315        2.0007438444
 C          4.8381388097       -0.2172842361        1.2570082454
 C          4.9312792529        0.9579100056        2.2352274202
 C          5.9826190347       -0.1384454518        0.2489221114
 N          3.5574163322       -0.1318637156        0.5300383764
 C          2.3526447922       -0.1455932018        1.1615379179
 O          2.1707635702       -0.2110193904        2.3581657034
 C          1.2513852961       -0.0741609875        0.1632025533
 C         -0.0931138663       -0.0234467933        0.4814234569
 C         -1.0270004675        0.0366104608       -0.5573871454
 N         -2.3851035911        0.0907127424       -0.2697008706
 C         -3.3062122376        0.9570791479       -0.8432173696
 C         -3.1114249170        1.9762187545       -1.7630125940
 C         -4.2113626993        2.7242713830       -2.1413703017
 C         -5.4754423308        2.4777772860       -1.6131275235
 C         -5.6690318309        1.4852960962       -0.6727558881
 C         -4.5785930601        0.7219309477       -0.2782622024
 C         -4.4170652262       -0.3416601389        0.6757887115
 C         -5.3025897750       -1.0102377265        1.5103102443
 C         -4.8181739794       -2.0292726878        2.3062528724
 C         -3.4755521362       -2.3945951649        2.2609293515
 C         -2.5761555117       -1.7429680384        1.4369721556
 C         -3.0513025753       -0.6982326209        0.6591151210
 C         -0.5888390064        0.0418914295       -1.8872987413
 C          0.7620502250        0.0047638574       -2.1954459224
 C          1.6663417175       -0.0537691437       -1.1570891172
 S          3.4420726669       -0.1039890331       -1.1763455611
 O          3.9337100594       -1.3341347489       -1.7155650431
 O          3.9968017938        1.1115429702       -1.6848978459
 H          4.7911511010       -2.3768782053        1.2942498609
 H          4.0847978803       -1.6142180098        2.7280558546
 H          5.8396472801       -1.6500583343        2.5204060099
 H          5.8830462384        0.9218457251        2.7583725296
 H          4.1278682725        0.9094762967        2.9647862882
 H          4.8620934551        1.8995029733        1.6948311810
 H          6.9306082439       -0.1966975143        0.7786214870
 H          5.9442653566        0.7967985574       -0.3027373123
 H          5.9260180514       -0.9584092830       -0.4614849897
 H         -0.3993057013       -0.0060462223        1.5157126245
 H         -2.1328707749        2.1979523244       -2.1616183873
 H         -4.0837400232        3.5209290473       -2.8587612882
 H         -6.3098702602        3.0815106668       -1.9363098945
 H         -6.6435344988        1.3073547257       -0.2445731024
 H         -6.3468381946       -0.7383409663        1.5287456321
 H         -5.4878090852       -2.5595087194        2.9663163314
 H         -3.1270014250       -3.2069594848        2.8806481217
 H         -1.5427039900       -2.0519738004        1.3986852825
 H         -1.3199728609        0.0536126281       -2.6813486107
 H          1.1009601152        0.0087202147       -3.2192193923
  49
  -80.8124446500000       8.315374095382745E-002 !
 C          4.8484213876       -1.5099270874        2.1332711396
 C          4.8442726240       -0.2592679468        1.2486256955
 C          4.9994718572        1.0101443847        2.0917011900
 C          5.9778355620       -0.3460991415        0.2289636176
 N          3.5599181559       -0.1914936862        0.5262119198
 C          2.3605531652       -0.1264932385        1.1650621648
 O          2.1859109349       -0.1335852830        2.3645252531
 C          1.2553361931       -0.0508830394        0.1711873570
 C         -0.0879633397        0.0067523822        0.4943361135
 C         -1.0252954859        0.0684815170       -0.5412576044
 N         -2.3831721117        0.1162705256       -0.2508174024
 C         -3.3115267036        0.9709157030       -0.8299881099
 C         -3.1219692672        1.9995954271       -1.7402631550
 C         -4.2293950936        2.7316365480       -2.1278523964
 C         -5.4958567489        2.4600540858       -1.6178248055
 C         -5.6846516217        1.4585588538       -0.6860900198
 C         -4.5866338495        0.7111355077       -0.2824140565
 C         -4.4191352945       -0.3561454786        0.6664654042
 C         -5.3041755949       -1.0458310498        1.4841408887
 C         -4.8132231807       -2.0624123607        2.2792439878
 C         -3.4639320996       -2.4039541283        2.2499381646
 C         -2.5649028625       -1.7314259196        1.4424003197
 C         -3.0474042821       -0.6898795714        0.6647026509
 C         -0.5915755104        0.0769094860       -1.8726818408
 C          0.7579012571        0.0343333514       -2.1856981293
 C          1.6653794847       -0.0320040026       -1.1505858990
 S          3.4399613559       -0.1077121687       -1.1778586653
 O          3.9082791663       -1.3253179925       -1.7628979782
 O          4.0144547537        1.1162870231       -1.6446231244
 H          4.7035081814       -2.3987982481        1.5228206081
 H          4.0539487733       -1.4548896735        2.8722006908
 H          5.8019787892       -1.5886177437        2.6483735012
 H          4.9660220829        1.8886991581        1.4507167488
 H          5.9530313622        0.9899996704        2.6124770752
 H          4.2006574477        1.0762546358        2.8253539144
 H          6.9286488928       -0.3927649080        0.7545953484
 H          5.9777641485        0.5249206442       -0.4203671977
 H          5.8727003638       -1.2341315121       -0.3880436963
 H         -0.3904159488        0.0249565502        1.5297312721
 H         -2.1422031335        2.2398575805       -2.1248231152
 H         -4.1060687756        3.5354925516       -2.8378985554
 H         -6.3360969838        3.0518327919       -1.9477806521
 H         -6.6615252885        1.2610560468       -0.2721683425
 H         -6.3530151235       -0.7917607639        1.4903234817
 H         -5.4826439976       -2.6092972247        2.9258142051
 H         -3.1099346666       -3.2151827719        2.8680404156
 H         -1.5262020597       -2.0234467884        1.4154182479
 H         -1.3255187708        0.0936026099       -2.6640637702
 H          1.0933180214        0.0389317646       -3.2105987404
  49
  -80.8124443900000       8.313086595660675E-002 !
 C          5.0058089788        1.1436591840        2.0058589177
 C          4.8394642960       -0.1939395052        1.2783060334
 C          5.9741633259       -0.3822739594        0.2736801651
 C          4.8302428936       -1.3606736078        2.2708999752
 N          3.5570125404       -0.1781961427        0.5498241579
 C          2.3572276243       -0.0480504657        1.1778304866
 O          2.1810396348        0.0528823834        2.3728217012
 C          1.2541816089       -0.0494527797        0.1787384956
 C         -0.0887326468        0.0532764217        0.4922415687
 C         -1.0232872202        0.0396420342       -0.5474854521
 N         -2.3811249594        0.1270274212       -0.2648339707
 C         -3.2980834858        0.9473474833       -0.9074299129
 C         -3.0942285983        1.9041750268       -1.8900016758
 C         -4.1919430698        2.6196410902       -2.3323788669
 C         -5.4625156658        2.4011032237       -1.8071715130
 C         -5.6655106810        1.4714589563       -0.8064625630
 C         -4.5774568338        0.7421197744       -0.3465921142
 C         -4.4245506602       -0.2567511692        0.6763945817
 C         -5.3192009127       -0.8787500057        1.5368242025
 C         -4.8412993674       -1.8426279548        2.4023202484
 C         -3.4953577455       -2.1985082009        2.4030155532
 C         -2.5867201603       -1.5926246243        1.5546510893
 C         -3.0565467522       -0.6042084230        0.7034964751
 C         -0.5879555428       -0.0687161590       -1.8737638644
 C          0.7611652109       -0.1595987787       -2.1782605411
 C          1.6658820882       -0.1516601420       -1.1387368755
 S          3.4392052362       -0.2599876842       -1.1548922251
 O          3.8868466886       -1.5375302619       -1.6148633989
 O          4.0343118139        0.9018358337       -1.7396117251
 H          4.2050546923        1.2836164669        2.7269406189
 H          4.9845785332        1.9617404011        1.2889918874
 H          5.9570899450        1.1597881854        2.5307507161
 H          6.9237264237       -0.3904411151        0.8036092704
 H          5.9833389893        0.4268086871       -0.4512289638
 H          5.8613506625       -1.3211483091       -0.2612891079
 H          5.7848977655       -1.4068189356        2.7878747579
 H          4.6704128568       -2.2981078027        1.7425943317
 H          4.0397465020       -1.2288326838        3.0042678608
 H         -0.3930653274        0.1626404359        1.5215341851
 H         -2.1108545315        2.1025114478       -2.2891814543
 H         -4.0579128305        3.3674198446       -3.0995160868
 H         -6.2950088265        2.9772851080       -2.1815639747
 H         -6.6455797358        1.3160261390       -0.3822669307
 H         -6.3655013141       -0.6147416644        1.5209619269
 H         -5.5185127788       -2.3366822352        3.0824516805
 H         -3.1517443089       -2.9671914603        3.0786658097
 H         -1.5503940499       -1.8942434072        1.5530711188
 H         -1.3206389490       -0.1052973357       -2.6657045122
 H          1.0977995802       -0.2476319142       -3.1989823968
  49
  -80.8124431400000       8.302097783290564E-002 !
 C          4.9818599595        0.7272962470        2.2249166875
 C          4.8900720261        0.8308518261        0.6994345015
 C          5.0153030158        2.2860561511        0.2386992453
 C          5.9921604314       -0.0079623534        0.0573517150
 N          3.5804737813        0.3059453138        0.2686277225
 C          2.4019029346        0.8589253327        0.6635146061
 O          2.2689694662        1.8252506837        1.3830263549
 C          1.2610138102        0.1019260116        0.0800020448
 C         -0.0717723814        0.4039276891        0.2918314339
 C         -1.0450026938       -0.3985738776       -0.3107842298
 N         -2.3934495500       -0.1200817347       -0.1216376719
 C         -2.9889139146        1.1292272807       -0.2323620802
 C         -2.4319544562        2.3460696812       -0.5940995446
 C         -3.2714569050        3.4424566368       -0.6687760750
 C         -4.6339512604        3.3354718681       -0.4030139664
 C         -5.1979004181        2.1203093236       -0.0692022056
 C         -4.3737144189        1.0061717774        0.0130134444
 C         -4.6211686330       -0.3808220091        0.3002254634
 C         -5.7637152432       -1.0908692782        0.6428684740
 C         -5.6502053176       -2.4435524326        0.8946301970
 C         -4.4154503221       -3.0825436890        0.8251440720
 C         -3.2646434194       -2.3954950153        0.4850713198
 C         -3.3781448510       -1.0430340306        0.2020534151
 C         -0.6584456388       -1.4832452373       -1.1072893759
 C          0.6800404644       -1.7832467002       -1.3057300087
 C          1.6240538227       -0.9778725500       -0.7061184995
 S          3.3981197338       -1.0635109581       -0.7394837942
 O          3.8823296014       -2.2299888445       -0.0689610834
 O          3.9174077015       -0.7828246339       -2.0415987133
 H          4.8647188593       -0.3091602846        2.5362707706
 H          4.2044588859        1.3269907704        2.6901784501
 H          5.9509705697        1.0889401954        2.5596070223
 H          5.9909442869        2.6744121007        0.5187850980
 H          4.2472394337        2.8973074867        0.7034553024
 H          4.9094370216        2.3455421307       -0.8423631766
 H          6.9611790648        0.3712067760        0.3726121766
 H          5.9305073694        0.0421502161       -1.0250970589
 H          5.9067428502       -1.0475274811        0.3575496507
 H         -0.3404658522        1.2314140059        0.9299687948
 H         -1.3809573668        2.4411120932       -0.8217544811
 H         -2.8597121937        4.4019239341       -0.9433393825
 H         -5.2557499379        4.2152341491       -0.4700840493
 H         -6.2564603776        2.0317289772        0.1201850320
 H         -6.7162157279       -0.5893565740        0.7181489297
 H         -6.5265475130       -3.0156040396        1.1591327371
 H         -4.3520678856       -4.1369993759        1.0472863468
 H         -2.3096791175       -2.8986878248        0.4605943457
 H         -1.4194965305       -2.0782932858       -1.5891123158
 H          0.9800059852       -2.6158976353       -1.9218859672
  49
  -80.8124412700000       8.285685633699001E-002 !
 C          4.9160462396       -1.5112431308        2.0076630348
 C          4.8432461573       -0.1811289166        1.2515304827
 C          4.9229630502        1.0049075550        2.2176230227
 C          5.9835837806       -0.0975333097        0.2391702543
 N          3.5596468195       -0.1177995362        0.5274392131
 C          2.3567386121       -0.1473196766        1.1622019114
 O          2.1791093415       -0.2102974562        2.3595777619
 C          1.2519645164       -0.0901845268        0.1664152987
 C         -0.0919465244       -0.0383359310        0.4875434603
 C         -1.0275509135        0.0254210275       -0.5494188257
 N         -2.3852268195        0.0876753604       -0.2606156221
 C         -3.2993132774        0.9623844216       -0.8325058250
 C         -3.0942026547        1.9882553137       -1.7425136793
 C         -4.1884284577        2.7445544104       -2.1210514977
 C         -5.4570201326        2.4986096271       -1.6032025913
 C         -5.6608049840        1.4989845419       -0.6726262384
 C         -4.5760950604        0.7277930315       -0.2774842914
 C         -4.4241017770       -0.3427428067        0.6703878315
 C         -5.3171147500       -1.0138661390        1.4947806029
 C         -4.8412029328       -2.0400347123        2.2866970009
 C         -3.4992731325       -2.4087991338        2.2483641205
 C         -2.5924290131       -1.7549462652        1.4342870728
 C         -3.0595282123       -0.7044126608        0.6594030249
 C         -0.5922033818        0.0309304401       -1.8802721869
 C          0.7577252426       -0.0121225931       -2.1914546515
 C          1.6638423878       -0.0731808240       -1.1548813262
 S          3.4393318441       -0.1262101313       -1.1787333477
 O          3.9265832071       -1.3699966621       -1.6910278575
 O          3.9951788258        1.0757181863       -1.7174835363
 H          4.8268244890       -2.3405970509        1.3090845686
 H          4.1139230133       -1.5746916967        2.7379120369
 H          5.8682138500       -1.5875297787        2.5255437072
 H          4.1259447379        0.9499616354        2.9536389662
 H          4.8324197795        1.9397091733        1.6687665525
 H          5.8793433962        0.9915211841        2.7331477203
 H          6.9338249110       -0.1480428144        0.7652863610
 H          5.9374744460        0.8351925193       -0.3158758200
 H          5.9296385742       -0.9203967973       -0.4681215590
 H         -0.3962307495       -0.0196917632        1.5224135292
 H         -2.1123928205        2.2075125670       -2.1344182819
 H         -4.0528661773        3.5467835067       -2.8307502950
 H         -6.2863158235        3.1103021671       -1.9245505877
 H         -6.6383526592        1.3230190994       -0.2506945707
 H         -6.3607298774       -0.7392438775        1.5075657881
 H         -5.5176606335       -2.5750055571        2.9358766195
 H         -3.1580547517       -3.2281618035        2.8628621116
 H         -1.5598304434       -2.0672332994        1.4000655382
 H         -1.3251568973        0.0475414003       -2.6725488279
 H          1.0944287215       -0.0104533562       -3.2158980829
  49
  -80.8124408800000       8.282266870010779E-002 !
 C          5.9816487203       -0.1938640669        0.2718983925
 C          4.8364157812       -0.1402920014        1.2806545592
 C          4.8469764626       -1.4015760699        2.1491845407
 C          4.9677034323        1.1199832397        2.1409862836
 N          3.5586583697       -0.0863301514        0.5457962420
 C          2.3542277221       -0.0002195428        1.1726040644
 O          2.1717917196        0.0818991866        2.3681160538
 C          1.2537353081       -0.0283366709        0.1712319997
 C         -0.0892911957        0.0863531895        0.4788426831
 C         -1.0240429485        0.0235507516       -0.5592071935
 N         -2.3812565519        0.1170178226       -0.2779240635
 C         -3.3086891434        0.8930802382       -0.9600319763
 C         -3.1213336885        1.7871267558       -2.0032076348
 C         -4.2281014676        2.4665715577       -2.4787593252
 C         -5.4918189033        2.2754352076       -1.9271332933
 C         -5.6781655965        1.4115500161       -0.8661584862
 C         -4.5809409879        0.7187522756       -0.3729820643
 C         -4.4127827559       -0.2126307106        0.7094662965
 C         -5.2953601681       -0.7791224200        1.6192438852
 C         -4.8050036437       -1.6856813477        2.5380203927
 C         -3.4591604683       -2.0416827994        2.5419318307
 C         -2.5625552896       -1.4900815599        1.6451785599
 C         -3.0437849072       -0.5551081229        0.7414710369
 C         -0.5871845957       -0.1428752779       -1.8790857222
 C          0.7626115404       -0.2411297846       -2.1786570281
 C          1.6670729282       -0.1862946710       -1.1402145311
 S          3.4402388447       -0.2954832837       -1.1480220485
 O          3.8861870689       -1.6071492555       -1.5046973259
 O          4.0369707867        0.8142533450       -1.8229120664
 H          5.9708291028        0.6840853397       -0.3679452514
 H          5.8996034125       -1.0767005111       -0.3555834388
 H          6.9279803176       -0.2293325045        0.8063994575
 H          5.7926055825       -1.4754416826        2.6790358692
 H          4.7229355071       -2.2832333878        1.5240956593
 H          4.0398276167       -1.3653345684        2.8759970529
 H          5.9223384567        1.1077547814        2.6597953168
 H          4.1690283112        1.1637283988        2.8758552314
 H          4.9197451999        2.0071393504        1.5134289873
 H         -0.3937671819        0.2415703923        1.5020939196
 H         -2.1438309802        1.9662867158       -2.4250042608
 H         -4.1065951999        3.1641444383       -3.2937364776
 H         -6.3317352131        2.8214303508       -2.3289000952
 H         -6.6524299096        1.2788464229       -0.4214077659
 H         -6.3420218832       -0.5172408305        1.6003108231
 H         -5.4723129462       -2.1353823861        3.2575138791
 H         -3.1055772013       -2.7673628759        3.2588846884
 H         -1.5267960765       -1.7936084504        1.6479514254
 H         -1.3186057721       -0.2202456974       -2.6691203244
 H          1.1001672979       -0.3725520948       -3.1943256100
  49
  -80.8124190100000       8.092793597175643E-002 !
 C          5.9815314474       -0.1541231178        0.2887199350
 C          4.8934134093        0.8434053621        0.6804576748
 C          4.9532465429        1.0988164435        2.1895512386
 C          5.0698137520        2.1461524413       -0.1051551967
 N          3.5784812033        0.2664709934        0.3429986067
 C          2.4043660352        0.8956677413        0.6210773842
 O          2.2751127698        1.9469887435        1.2101581694
 C          1.2619060292        0.1031199714        0.0892528613
 C         -0.0706642045        0.4222809192        0.2759220681
 C         -1.0445780626       -0.4084364116       -0.2865360141
 N         -2.3928327739       -0.1169546256       -0.1198041808
 C         -2.9835271215        1.1286480871       -0.2886470685
 C         -2.4201708229        2.3290521839       -0.6934713208
 C         -3.2561916284        3.4231663055       -0.8217438457
 C         -4.6215282906        3.3302162579       -0.5664119156
 C         -5.1921450086        2.1301765468       -0.1911418201
 C         -4.3715122732        1.0186683939       -0.0553984951
 C         -4.6267413676       -0.3551239180        0.2838329377
 C         -5.7768149480       -1.0479124911        0.6369512788
 C         -5.6721585597       -2.3906477270        0.9417085257
 C         -4.4381951260       -3.0344400808        0.9176250656
 C         -3.2800931038       -2.3641208001        0.5683636729
 C         -3.3846797085       -1.0238421220        0.2286375925
 C         -0.6578627510       -1.5360928637       -1.0211921094
 C          0.6800818822       -1.8536863430       -1.1928602116
 C          1.6243200287       -1.0208658686       -0.6325228437
 S          3.3976752533       -1.1205104169       -0.6424389780
 O          3.8616025422       -2.2820759999        0.0489255447
 O          3.9388982842       -0.8602907332       -1.9411435013
 H          5.8475681295       -1.0949773890        0.8156013817
 H          6.9545748715        0.2583604828        0.5448588133
 H          5.9547366617       -0.3522393156       -0.7789365055
 H          5.9323929170        1.4904612695        2.4515127856
 H          4.7888849632        0.1710145909        2.7330719713
 H          4.1961906844        1.8192511770        2.4850188536
 H          6.0459858357        2.5748627483        0.1050007205
 H          4.3035743865        2.8629357847        0.1783608070
 H          4.9933418028        1.9474256836       -1.1721591742
 H         -0.3386502410        1.2840903648        0.8669837807
 H         -1.3672905458        2.4134622806       -0.9151645177
 H         -2.8388816598        4.3697614557       -1.1303674029
 H         -5.2400976811        4.2080846330       -0.6748005072
 H         -6.2532418148        2.0506167016       -0.0114364181
 H         -6.7287314995       -0.5411625175        0.6771893849
 H         -6.5540445959       -2.9494697174        1.2158163580
 H         -4.3812457182       -4.0795132289        1.1827322734
 H         -2.3268570986       -2.8708902820        0.5798746768
 H         -1.4182620212       -2.1512708059       -1.4778533210
 H          0.9796500071       -2.7202360132       -1.7605465453
