  49
        -80.81246415
 C          5.9912165679       -0.0617484199        0.1543716224
 C          4.8890638007        0.8593952592        0.6730039739
 C          4.9621666384        0.9444060642        2.2007085435
 C          5.0312289838        2.2464408377        0.0388911007
 N          3.5796954463        0.2967105943        0.2921819768
 C          2.4012248612        0.8925046122        0.6193246641
 O          2.2678333030        1.9189464946        1.2502045360
 C          1.2611174212        0.0985807776        0.0852801346
 C         -0.0718436695        0.4174367453        0.2691570857
 C         -1.0447303959       -0.4174535879       -0.2889027511
 N         -2.3928702668       -0.1225071729       -0.1275989125
 C         -2.9791556378        1.1243119695       -0.3030346008
 C         -2.4124505748        2.3191999759       -0.7193316141
 C         -3.2440573922        3.4162849203       -0.8509628095
 C         -4.6086202651        3.3313470842       -0.5881091510
 C         -5.1829473976        2.1363713048       -0.2024027892
 C         -4.3666829967        1.0219590577       -0.0633166672
 C         -4.6261907179       -0.3483736427        0.2864732102
 C         -5.7777729936       -1.0336614193        0.6491269977
 C         -5.6774867311       -2.3745062640        0.9635817867
 C         -4.4462992804       -3.0236878826        0.9393798647
 C         -3.2868186259       -2.3609895667        0.5803179564
 C         -3.3870728860       -1.0227938228        0.2312666654
 C         -0.6564371609       -1.5509617844       -1.0136076702
 C          0.6821029264       -1.8685406789       -1.1817840856
 C          1.6254378683       -1.0306694418       -0.6273648820
 S          3.3992940698       -1.1229688066       -0.6447519976
 O          3.8765795814       -2.2557734589        0.0854193082
 O          3.9269725356       -0.9081901002       -1.9565880786
 H          5.9429189971       -0.1464759783       -0.9276630871
 H          5.8928983277       -1.0560127828        0.5810669724
 H          6.9600296763        0.3467282316        0.4323472378
 H          5.9349278766        1.3261261118        2.4986058503
 H          4.8231562740       -0.0428946449        2.6360389382
 H          4.1924045777        1.6101308571        2.5809301401
 H          6.0025922638        2.6648259996        0.2882886564
 H          4.2569981382        2.9127827574        0.4092676367
 H          4.9470874399        2.1713400485       -1.0432463893
 H         -0.3407830393        1.2834550658        0.8535798546
 H         -1.3603244997        2.3970577747       -0.9472262411
 H         -2.8236386726        4.3590472245       -1.1674071116
 H         -5.2232717314        4.2117485781       -0.6976207950
 H         -6.2435978314        2.0630617165       -0.0171082986
 H         -6.7275722114       -0.5226487145        0.6889991038
 H         -6.5609266869       -2.9277134702        1.2446022047
 H         -4.3929522651       -4.0672249214        1.2109113029
 H         -2.3357864917       -2.8718173326        0.5916743793
 H         -1.4158121294       -2.1714870214       -1.4647087878
 H          0.9826662498       -2.7407373505       -1.7401198965
