  78
       -128.32433767
 C         10.0626634049       -3.3279335424        1.4465182291
 C          8.6941617913       -3.3816676262        1.2587403379
 C          8.0112421324       -2.2871998567        0.7552159723
 C          8.6883677207       -1.1142058400        0.4369297742
 C         10.0816079918       -1.0785621157        0.6071538375
 C         10.7564826867       -2.1747537300        1.1129047635
 O         10.8306071148        0.0203132011        0.2755526209
 C         10.1686921518        1.1150674328       -0.2160944486
 C         10.9307169540        2.2244527246       -0.5344984605
 C         10.3224130450        3.3740154914       -1.0150631524
 C          8.9484828203        3.4107754347       -1.1619354226
 C          8.1791207832        2.3030928256       -0.8473484027
 C          8.7750358380        1.1339158835       -0.3854181655
 N          8.0341216683        0.0033973320       -0.0655572930
 C          6.6252131678       -0.0012917960       -0.2232656344
 C          6.0618129887        0.0220050172       -1.4961854566
 C          4.6934294192        0.0202258693       -1.6526056459
 C          3.8395993316       -0.0086894603       -0.5405833648
 C          2.3977983228       -0.0114791722       -0.6399508159
 C          1.6817084176        0.0409400115       -1.8475849350
 C          0.3109499248        0.0349525649       -1.8479239615
 C         -0.4020960541       -0.0247586582       -0.6247832650
 N         -1.7085655711       -0.0217345704       -0.5656100895
 C         -2.3930131059       -0.0706785603        0.5917496216
 C         -3.8351841988       -0.0598877055        0.4988078205
 C         -4.6812993284       -0.0498300027        1.6171948779
 C         -6.0503442057       -0.0321791627        1.4706525261
 C         -6.6228695862       -0.0211917751        0.2015866995
 N         -8.0332064276        0.0055313355        0.0584076640
 C         -8.7117470009       -1.0965939478       -0.4455647404
 C         -8.0551854517       -2.2699428360       -0.8032243458
 C         -8.7629494040       -3.3500659624       -1.3032114562
 C        -10.1360745807       -3.2817257724       -1.4479122279
 C        -10.8086937446       -2.1274355241       -1.0770798389
 C        -10.1087207830       -1.0448977531       -0.5759917266
 O        -10.8372208802        0.0565251093       -0.2088785029
 C        -10.1510448715        1.1371531188        0.2807766211
 C        -10.8923710335        2.2499273612        0.6344005360
 C        -10.2593615403        3.3852855452        1.1168048324
 C         -8.8818928234        3.4044615686        1.2307892711
 C         -8.1331475197        2.2934826239        0.8804251709
 C         -8.7535279246        1.1383954271        0.4149815005
 C         -5.7992003315       -0.0317880994       -0.9225560369
 C         -4.4332252751       -0.0525379418       -0.7731677707
 C         -1.6761983787       -0.1289113032        1.7987950837
 C         -0.3057502895       -0.1334928176        1.7980965834
 C          0.4059529194       -0.0776757460        0.5742115816
 N          1.7121145889       -0.0653843908        0.5162507285
 C          4.4287093448       -0.0362245251        0.7354033286
 C          5.7933190326       -0.0298273159        0.8946915104
 H         10.5958249297       -4.1774575914        1.8427554373
 H          8.1461237568       -4.2789084409        1.5012941111
 H          6.9450595257       -2.3393707050        0.6019721350
 H         11.8256346805       -2.1064044003        1.2345705546
 H         11.9983307720        2.1694388318       -0.3946385621
 H         10.9237730877        4.2342922552       -1.2623796916
 H          8.4631969385        4.3051286882       -1.5208176004
 H          7.1067275546        2.3419916465       -0.9536562468
 H          6.7100695980        0.0388059799       -2.3606446099
 H          4.2880903672        0.0343272029       -2.6520671451
 H          2.2139135231        0.0847043119       -2.7844766775
 H         -0.2519169733        0.0738178901       -2.7672815521
 H         -4.2694162504       -0.0557160728        2.6139413221
 H         -6.6924226400       -0.0260377426        2.3398417847
 H         -6.9854231756       -2.3337258798       -0.6826227349
 H         -8.2309136202       -4.2480191793       -1.5768231709
 H        -10.6887301542       -4.1208987018       -1.8394089114
 H        -11.8803141648       -2.0474658157       -1.1649693960
 H        -11.9637345557        2.2082990693        0.5209190715
 H        -10.8445686876        4.2481916619        1.3921777570
 H         -8.3778342014        4.2874583389        1.5921483618
 H         -7.0580617056        2.3185589448        0.9617541426
 H         -6.2454979805       -0.0196956429       -1.9065064964
 H         -3.7855543155       -0.0565212548       -1.6358809062
 H         -2.2075785141       -0.1790347920        2.7357908685
 H          0.2579112340       -0.1826196593        2.7164156536
 H          3.7747413421       -0.0559918417        1.5931649825
 H          6.2328228310       -0.0443627707        1.8816727629
