  62
  -101.496788213100       0.271426398410128      !
 O         -0.0544344883       -4.0406881293        1.2457671880
 C         -0.8347369298       -3.2911671973        0.6197218617
 C         -2.1151924518       -3.7217999214        0.1588500101
 C         -2.9495331335       -3.1030778926       -0.8078678184
 N         -4.0988928583       -3.5876580338       -1.1831553466
 C         -4.5191013366       -4.7355746978       -0.6573348379
 N         -3.7731178403       -5.4317860307        0.1955957692
 C         -2.6241758943       -4.9866052055        0.5860640264
 C         -0.4148294164       -1.8991307058        0.3304102135
 C         -1.2989586543       -0.8184304083        0.3559796596
 C         -0.8239828624        0.4724651131        0.1524627710
 N         -1.7068956148        1.5577140508        0.2335075056
 C         -2.9050592567        1.6850340761       -0.4394599045
 C         -3.4744683512        0.8561961525       -1.3952013729
 C         -4.6882099498        1.2324013154       -1.9382924204
 C         -5.3197410810        2.4121413885       -1.5532344454
 C         -4.7443896520        3.2568735810       -0.6219507182
 C         -3.5285847081        2.8963758716       -0.0602098004
 C         -2.6576266658        3.5196574658        0.8997396517
 C         -2.7308799629        4.6953753351        1.6318717409
 C         -1.7051167883        4.9925341955        2.5099961497
 C         -0.6263683800        4.1270686858        2.6716764040
 C         -0.5313565402        2.9500145362        1.9528825863
 C         -1.5463881996        2.6583909437        1.0524437044
 C          0.5322557613        0.7051392244       -0.0584861693
 C          1.4189097102       -0.3696646046       -0.0488223117
 N          2.7872458279       -0.1528151797       -0.2419685701
 C          3.3561856909        0.5970662774       -1.2510368425
 C          2.7508804495        1.2615085440       -2.3089571609
 C          3.5673476528        1.9295980049       -3.2025852294
 C          4.9521460343        1.9327761492       -3.0589013314
 C          5.5621860400        1.2517631043       -2.0211004329
 C          4.7638656357        0.5741674868       -1.1122989241
 C          5.0468213030       -0.2343981388        0.0436093972
 C          6.2198161603       -0.6056701870        0.6833627691
 C          6.1333550640       -1.3978705556        1.8138246754
 C          4.8985299702       -1.8052983700        2.3119648700
 C          3.7155707509       -1.4457294796        1.6934383339
 C          3.7984268736       -0.6694672785        0.5453367292
 C          0.9471723364       -1.6605600064        0.1385545546
 H         -2.6260484405       -2.2013204365       -1.3123583056
 H         -5.4802708425       -5.1219476857       -0.9475623329
 H         -2.0208607820       -5.5829524798        1.2583381783
 H         -2.3390216058       -0.9598372622        0.6072191900
 H         -2.9831975183       -0.0488372431       -1.7162566015
 H         -5.1536858527        0.5980396527       -2.6772276771
 H         -6.2685748388        2.6719276191       -1.9976902777
 H         -5.2261839177        4.1798570853       -0.3376319786
 H         -3.5745298698        5.3590226771        1.5188695341
 H         -1.7421862266        5.9034677546        3.0882228901
 H          0.1515351557        4.3777212419        3.3771807654
 H          0.2985912569        2.2760296103        2.1009233766
 H          0.8940928203        1.7111616349       -0.2011568059
 H          1.6799991188        1.2467625850       -2.4424573204
 H          3.1207634068        2.4562716425       -4.0326344713
 H          5.5560134092        2.4674709706       -3.7764702964
 H          6.6366795027        1.2415074728       -1.9202600922
 H          7.1769700180       -0.2789569189        0.3062547386
 H          7.0349066342       -1.7013977095        2.3244250498
 H          4.8623010600       -2.4143713555        3.2023915267
 H          2.7643067430       -1.7583845074        2.0948363284
 H          1.6241771752       -2.5002301589        0.1200130075
  62
  -101.496604402900       0.223449179801204      !
 O         -2.4977481632       -2.5943572747        2.2379042516
 C         -1.7042938267       -2.7265906207        1.2792545205
 C         -1.4406036362       -3.9859471019        0.6626197063
 C         -0.8048696219       -4.2449654441       -0.5820453813
 N         -0.6468148106       -5.4432593825       -1.0684407161
 C         -1.1135956290       -6.4889520175       -0.3917044153
 N         -1.7866332379       -6.3430311454        0.7466119074
 C         -1.9698985778       -5.1712534409        1.2594560978
 C         -1.0223681421       -1.5209030493        0.7561013209
 C         -1.7183159511       -0.3113834565        0.8029050034
 C         -1.1178929719        0.8639052645        0.3780236980
 N         -1.8255515928        2.0701439993        0.4440659877
 C         -1.9533166474        2.9944264324       -0.5718232439
 C         -1.4895423436        2.9427429032       -1.8787743858
 C         -1.7787764193        4.0076613257       -2.7110470286
 C         -2.5209651431        5.0970031523       -2.2629731920
 C         -3.0091912396        5.1426450782       -0.9696790165
 C         -2.7307460928        4.0853313364       -0.1170163843
 C         -3.0845642777        3.7924167770        1.2463157910
 C         -3.8119809262        4.4748165600        2.2098199916
 C         -3.9516411794        3.9018567002        3.4608793265
 C         -3.3657358785        2.6738165005        3.7570921639
 C         -2.6346190790        1.9757148496        2.8140923900
 C         -2.5104216603        2.5361416233        1.5498511895
 C          0.1950532876        0.8513876824       -0.0906599739
 C          0.8987495691       -0.3499903263       -0.1108323962
 N          2.2353741009       -0.3657862359       -0.5345672890
 C          2.7102068408        0.1375213542       -1.7276779618
 C          2.0162797391        0.7196665537       -2.7787128029
 C          2.7393849464        1.1269163165       -3.8837440784
 C          4.1191627420        0.9518166157       -3.9517780276
 C          4.8129312109        0.3490938945       -2.9185820292
 C          4.1080101683       -0.0664886469       -1.7987649061
 C          4.4849955755       -0.7277039101       -0.5783902693
 C          5.6959504961       -1.1697443957       -0.0664986534
 C          5.7085702319       -1.7638738131        1.1819942547
 C          4.5370521667       -1.9053568873        1.9215706683
 C          3.3186495666       -1.4719666609        1.4332257843
 C          3.2969437567       -0.8960680078        0.1704050030
 C          0.3005242979       -1.5300644788        0.3120108954
 H         -0.4539127448       -3.4324180723       -1.2061008915
 H         -0.9605683396       -7.4779112774       -0.7866998593
 H         -2.5430675538       -5.0719424192        2.1726787679
 H         -2.7380768166       -0.3119717623        1.1544355713
 H         -0.9344730398        2.0919796634       -2.2417196172
 H         -1.4253893573        3.9917631985       -3.7312637225
 H         -2.7254232750        5.9113241051       -2.9415821706
 H         -3.5994064633        5.9796974453       -0.6293787631
 H         -4.2550993205        5.4330695772        1.9852679230
 H         -4.5168532173        4.4151584403        4.2241250138
 H         -3.4825734433        2.2569879346        4.7458252989
 H         -2.1760108907        1.0304788267        3.0586268289
 H          0.6823268050        1.7705159612       -0.3766372371
 H          0.9444741795        0.8380531834       -2.7421342200
 H          2.2228929896        1.5861033851       -4.7132097199
 H          4.6500721071        1.2836174458       -4.8312987835
 H          5.8799861141        0.1995098098       -2.9804619464
 H          6.6070358105       -1.0475551348       -0.6321699180
 H          6.6401279676       -2.1182425473        1.5966221050
 H          4.5812253249       -2.3602091371        2.8997222787
 H          2.4186113473       -1.5691710763        2.0209760187
 H          0.8802478735       -2.4400449395        0.3181032903
  62
  -101.496362750500       0.173030638788189      !
 O         -3.2122132252       -2.7266117847       -0.1418545865
 C         -2.0105239758       -2.7828218587        0.2050452646
 C         -1.4127661888       -3.9997170785        0.6618128202
 C         -0.2115926003       -4.1830781368        1.3951167387
 N          0.2257821594       -5.3514329762        1.7760132994
 C         -0.4890409990       -6.4352452666        1.4914519884
 N         -1.6700864970       -6.3584991682        0.8837140364
 C         -2.1390560421       -5.2177764123        0.4970813538
 C         -1.1940846384       -1.5533308933        0.1412253485
 C         -1.8681878893       -0.3318441755        0.2499823011
 C         -1.1881535743        0.8656962053        0.1074113511
 N         -1.8805476938        2.0779953245        0.2418808989
 C         -1.9048738865        3.1020427969       -0.6801290742
 C         -1.3056195707        3.1789795565       -1.9292391602
 C         -1.5127330129        4.3231828775       -2.6760823197
 C         -2.3032329186        5.3658549433       -2.1998581568
 C         -2.9209640695        5.2861825142       -0.9645996117
 C         -2.7269297407        4.1475814577       -0.1975707935
 C         -3.2170348671        3.7193797875        1.0855262275
 C         -4.0371318655        4.3032114186        2.0390869513
 C         -4.3019973383        3.6020123580        3.2017107934
 C         -3.7512409438        2.3420839105        3.4226112877
 C         -2.9301177909        1.7402239556        2.4876700948
 C         -2.6762999774        2.4317688482        1.3110920718
 C          0.1798136467        0.8725192256       -0.1598421921
 C          0.8487668500       -0.3418644317       -0.2916328761
 N          2.2224184510       -0.3499189314       -0.5790803646
 C          2.8323219759        0.2903707888       -1.6375389620
 C          2.2686092156        1.0460614520       -2.6552552803
 C          3.1133291689        1.5691078584       -3.6158373768
 C          4.4862673579        1.3399822860       -3.5760108116
 C          5.0512449724        0.5669280318       -2.5782706375
 C          4.2229376419        0.0335724356       -1.6021366644
 C          4.4527463675       -0.8058572163       -0.4570856890
 C          5.5891446515       -1.3710444695        0.1023547912
 C          5.4545121957       -2.1295598163        1.2506916783
 C          4.2106174061       -2.3104493353        1.8503659373
 C          3.0658985149       -1.7546949477        1.3119646628
 C          3.1897400380       -1.0173206107        0.1432413471
 C          0.1731490730       -1.5467237590       -0.1463071788
 H          0.3799617835       -3.3354405861        1.7139994055
 H         -0.1124378652       -7.4007182983        1.7811016249
 H         -3.1144705810       -5.1716160423        0.0287919798
 H         -2.9331989114       -0.3417891217        0.4225829189
 H         -0.7118943319        2.3644395234       -2.3133551698
 H         -1.0572302946        4.4073828658       -3.6513533618
 H         -2.4427261229        6.2440161962       -2.8120830702
 H         -3.5470825522        6.0886470933       -0.6055842024
 H         -4.4576826161        5.2834621494        1.8743684479
 H         -4.9394525117        4.0385396122        3.9557751510
 H         -3.9703472914        1.8237590340        4.3439414242
 H         -2.4996079735        0.7671475813        2.6678480889
 H          0.7184388683        1.8038990777       -0.2404948923
 H          1.2032940677        1.2085888666       -2.7039701950
 H          2.6992990383        2.1639308871       -4.4161491626
 H          5.1147012327        1.7665160930       -4.3431892151
 H          6.1136442035        0.3777259381       -2.5579989737
 H          6.5568752580       -1.2166101316       -0.3499705490
 H          6.3264501530       -2.5815275890        1.6987630157
 H          4.1384272923       -2.8944409493        2.7553124708
 H          2.1086629184       -1.8783264096        1.7946162344
 H          0.7071735288       -2.4672592104       -0.3248029204
  62
  -101.496360637900       0.172644253505984      !
 O         -0.2004545853       -4.2298468360        0.0892280931
 C         -0.9555399249       -3.3038130777       -0.2819692997
 C         -2.2493302848       -3.5493227073       -0.8369836881
 C         -3.0740588917       -2.6694720581       -1.5867040365
 N         -4.2358006601       -3.0110131517       -2.0697918179
 C         -4.6783057320       -4.2502494303       -1.8788514786
 N         -3.9431826658       -5.1710394531       -1.2604634869
 C         -2.7841326368       -4.8721501854       -0.7734053733
 C         -0.4853267924       -1.9065924764       -0.1595991773
 C         -1.3307750572       -0.8385307867        0.1482889951
 C         -0.8026297185        0.4321530668        0.3342907278
 N         -1.6557365616        1.4946282218        0.6721298905
 C         -1.5321714360        2.2974463142        1.7865157197
 C         -0.5989684077        2.2435263686        2.8114643935
 C         -0.7096540317        3.1655889707        3.8347374984
 C         -1.7294060476        4.1139234619        3.8479367324
 C         -2.6787100579        4.1548496641        2.8431576011
 C         -2.5868047326        3.2396406911        1.8050629023
 C         -3.3846773591        2.9791455889        0.6369486449
 C         -4.5273125034        3.5617775616        0.1091790606
 C         -5.0404684718        3.0602030965       -1.0729250662
 C         -4.4192244228        2.0042565050       -1.7352894959
 C         -3.2790036618        1.4100243163       -1.2293747362
 C         -2.7742530246        1.8911657909       -0.0299098328
 C          0.5637041586        0.6650504559        0.2006076664
 C          1.4101879672       -0.4047852708       -0.0873598723
 N          2.7866483934       -0.1913229736       -0.2364009067
 C          3.5538194117       -0.6433048840       -1.2919791221
 C          3.1704664104       -1.3418312409       -2.4289961077
 C          4.1490219648       -1.6538779742       -3.3540841206
 C          5.4754558909       -1.2742473671       -3.1655238752
 C          5.8586067949       -0.5561842324       -2.0473444128
 C          4.8943989120       -0.2333899138       -1.1045082111
 C          4.9284347961        0.4960350051        0.1346465784
 C          5.9415075077        1.1205289293        0.8461121720
 C          5.6287757242        1.7286560552        2.0483242189
 C          4.3292842565        1.7030722909        2.5473561751
 C          3.3044552139        1.0855614589        1.8555667728
 C          3.6053281562        0.4966464754        0.6355179759
 C          0.8914461406       -1.6804579819       -0.2451877427
 H         -2.7399119632       -1.6696065376       -1.8296876269
 H         -5.6490638875       -4.5221060329       -2.2552980045
 H         -2.1891118180       -5.6419197050       -0.2977939047
 H         -2.3862765594       -0.9946456733        0.3103138262
 H          0.1764122318        1.4932450939        2.8186367275
 H          0.0057253115        3.1465892349        4.6432500542
 H         -1.7824598211        4.8194842353        4.6632957831
 H         -3.4784259228        4.8793414229        2.8653066396
 H         -5.0012705439        4.3908240275        0.6121354068
 H         -5.9319613976        3.4968531699       -1.4970508153
 H         -4.8350491764        1.6430278271       -2.6636039816
 H         -2.7908703763        0.6056505977       -1.7577032621
 H          0.9552844588        1.6657258796        0.2969246591
 H          2.1428390208       -1.6280082252       -2.5916129355
 H          3.8776540084       -2.2023039229       -4.2435332795
 H          6.2114618346       -1.5397037866       -3.9093465987
 H          6.8842722298       -0.2496347833       -1.9093180277
 H          6.9525435602        1.1263540995        0.4685314790
 H          6.4030227854        2.2219848900        2.6163536001
 H          4.1178980798        2.1708323830        3.4972219683
 H          2.3062503330        1.0516471899        2.2619505995
 H          1.5439064932       -2.5218100983       -0.4192044766
  62
  -101.495764326100       9.185571847276729E-002 !
 O         -0.2157571321       -4.1883910916       -0.4554863937
 C         -0.9450525811       -3.2114620972       -0.7385252012
 C         -2.2219277175       -3.3654713290       -1.3622155135
 C         -3.0051448853       -2.3863671685       -2.0319602219
 N         -4.1597015170       -2.6496720918       -2.5782808772
 C         -4.6326767209       -3.8909687623       -2.5380387272
 N         -3.9334420689       -4.8937763951       -2.0128416802
 C         -2.7817242618       -4.6746709302       -1.4664206444
 C         -0.4638815660       -1.8517454539       -0.4131575790
 C         -1.3140275632       -0.8212330004       -0.0130108929
 C         -0.7895856840        0.4102167383        0.3615928924
 N         -1.6622466028        1.4321251391        0.7564069362
 C         -2.6868524943        1.3023092085        1.6727005150
 C         -3.0216550625        0.2199680853        2.4749388939
 C         -4.0942765826        0.3641712558        3.3348758440
 C         -4.8114944829        1.5555117647        3.4086916909
 C         -4.4642431913        2.6457757327        2.6323655648
 C         -3.3930395712        2.5242663741        1.7598774818
 C         -2.7591545525        3.4282042865        0.8379635845
 C         -3.0033333193        4.7431040195        0.4713981342
 C         -2.1958708148        5.3228436072       -0.4898677464
 C         -1.1673181745        4.6027604985       -1.0914575859
 C         -0.9048178342        3.2909680708       -0.7425256227
 C         -1.6965891814        2.7116398622        0.2391898998
 C          0.5828992316        0.6394473033        0.3195290614
 C          1.4336037045       -0.3947481535       -0.0665888201
 N          2.8187755009       -0.1926733412       -0.0846982752
 C          3.6630846629       -0.5207369186       -1.1264265186
 C          3.3614440765       -1.0412753904       -2.3774166072
 C          4.4074692474       -1.2503626167       -3.2566086676
 C          5.7204258983       -0.9413326395       -2.9108499817
 C          6.0235401676       -0.4008518696       -1.6745687325
 C          4.9909421805       -0.1846775954       -0.7745585478
 C          4.9347774813        0.3603728430        0.5555926090
 C          5.8967285890        0.8420009137        1.4303616352
 C          5.4952097455        1.2799115811        2.6792142554
 C          4.1575340471        1.2271312286        3.0618013284
 C          3.1805458854        0.7524733421        2.2065461344
 C          3.5742960352        0.3345790231        0.9426757572
 C          0.9171646762       -1.6363225949       -0.4058932055
 H         -2.6469672798       -1.3731040363       -2.1586845237
 H         -5.5989019033       -4.0953104645       -2.9651123141
 H         -2.2167846709       -5.5088524873       -1.0698106465
 H         -2.3816773506       -0.9691940378        0.0295185560
 H         -2.4601582831       -0.7010887821        2.4383822379
 H         -4.3794559302       -0.4647194727        3.9650800615
 H         -5.6453237013        1.6277087024        4.0905916798
 H         -5.0108177894        3.5737125917        2.7029449820
 H         -3.8099090142        5.2975340576        0.9261218423
 H         -2.3683093539        6.3460737114       -0.7876504935
 H         -0.5634543395        5.0767963517       -1.8506545554
 H         -0.1185635671        2.7355030103       -1.2304938496
 H          0.9836547724        1.6011551045        0.5981405975
 H          2.3454364357       -1.2715869295       -2.6588692633
 H          4.2007609543       -1.6603984684       -4.2335578357
 H          6.5103375527       -1.1212474057       -3.6243225936
 H          7.0398530454       -0.1481300372       -1.4136327815
 H          6.9362709134        0.8675297956        1.1413733526
 H          6.2286301520        1.6587357435        3.3747893391
 H          3.8769658661        1.5591806857        4.0500417286
 H          2.1498552073        0.6939665515        2.5211470967
 H          1.5730263825       -2.4575794079       -0.6485476513
  62
  -101.495474490400       6.759381102172830E-002 !
 O         -0.1361109226       -4.0830848890        1.3569283654
 C         -0.8696224186       -3.3477791645        0.6637156014
 C         -2.0991382882       -3.7781731835        0.0888886308
 C         -2.8434242079       -3.1352404423       -0.9361728198
 N         -3.9570676168       -3.6026386037       -1.4208725505
 C         -4.4259002428       -4.7613594533       -0.9603759609
 N         -3.7555958446       -5.4818356764       -0.0648229747
 C         -2.6449477907       -5.0536014391        0.4368180146
 C         -0.4395621358       -1.9503216952        0.3870467322
 C         -1.3263945005       -0.8735774589        0.4332220623
 C         -0.8635287568        0.4186013405        0.1998387092
 N         -1.7308496506        1.5128966280        0.2853646885
 C         -2.9956000126        1.6124734260       -0.2682291793
 C         -3.7129048660        0.7021090093       -1.0312727324
 C         -4.9707255394        1.0689320260       -1.4724619203
 C         -5.5078325828        2.3192145832       -1.1808180515
 C         -4.7868643359        3.2455051950       -0.4509467571
 C         -3.5257149551        2.8944411278        0.0066720078
 C         -2.5280015092        3.5973364878        0.7658141887
 C         -2.4749933721        4.8723648824        1.3089348883
 C         -1.3493172247        5.2416034077        2.0207553883
 C         -0.3044867382        4.3432866138        2.2175129086
 C         -0.3375020765        3.0671454791        1.6863757898
 C         -1.4430550484        2.7057878156        0.9276957533
 C          0.4888768517        0.6409848220       -0.0518947960
 C          1.3829110613       -0.4261412762       -0.0314417298
 N          2.7484323511       -0.1983240846       -0.2224618641
 C          3.3122042145        0.6152097270       -1.1853388968
 C          2.7091711735        1.3014515178       -2.2307598186
 C          3.5197766749        2.0477397491       -3.0659505495
 C          4.8983049662        2.1042785225       -2.8805960164
 C          5.5088282463        1.3945511417       -1.8627448147
 C          4.7158257270        0.6392351629       -1.0124299498
 C          5.0036759592       -0.2117671531        0.1111196707
 C          6.1779907134       -0.5706846024        0.7556210063
 C          6.1005119730       -1.4152004660        1.8479253744
 C          4.8716002342       -1.8821903146        2.3061021121
 C          3.6873153371       -1.5347232035        1.6826071568
 C          3.7619227291       -0.7108085611        0.5675047975
 C          0.9169836274       -1.7185563791        0.1723747175
 H         -2.4653295832       -2.2271523667       -1.3910597394
 H         -5.3593073726       -5.1358063227       -1.3418288139
 H         -2.1039807351       -5.6702302137        1.1428407623
 H         -2.3555150805       -1.0261629614        0.7195357346
 H         -3.3125003771       -0.2647143606       -1.2866013704
 H         -5.5455198623        0.3663051326       -2.0564790754
 H         -6.4952736554        2.5682740023       -1.5388218451
 H         -5.1914702972        4.2235094108       -0.2395618647
 H         -3.2982747529        5.5574700479        1.1764212907
 H         -1.2820032241        6.2325983450        2.4435275084
 H          0.5516524219        4.6469744694        2.8010565605
 H          0.4683643998        2.3757761647        1.8779847328
 H          0.8464201427        1.6412260756       -0.2353451713
 H          1.6449932188        1.2458718474       -2.4011324966
 H          3.0727857416        2.5954520515       -3.8820120544
 H          5.4971147955        2.7024151371       -3.5507079119
 H          6.5796969034        1.4229411745       -1.7315766860
 H          7.1289468025       -0.1940339333        0.4109547450
 H          7.0031763897       -1.7112356390        2.3608372962
 H          4.8400408624       -2.5291296000        3.1696021703
 H          2.7422515770       -1.8926917286        2.0595816881
 H          1.5929748211       -2.5582976458        0.1411426640
