  62
       -101.89931221
 O         -0.0544344883       -4.0406881293        1.2457671880
 C         -0.8347369298       -3.2911671973        0.6197218617
 C         -2.1151924518       -3.7217999214        0.1588500101
 C         -2.9495331335       -3.1030778926       -0.8078678184
 N         -4.0988928583       -3.5876580338       -1.1831553466
 C         -4.5191013366       -4.7355746978       -0.6573348379
 N         -3.7731178403       -5.4317860307        0.1955957692
 C         -2.6241758943       -4.9866052055        0.5860640264
 C         -0.4148294164       -1.8991307058        0.3304102135
 C         -1.2989586543       -0.8184304083        0.3559796596
 C         -0.8239828624        0.4724651131        0.1524627710
 N         -1.7068956148        1.5577140508        0.2335075056
 C         -2.9050592567        1.6850340761       -0.4394599045
 C         -3.4744683512        0.8561961525       -1.3952013729
 C         -4.6882099498        1.2324013154       -1.9382924204
 C         -5.3197410810        2.4121413885       -1.5532344454
 C         -4.7443896520        3.2568735810       -0.6219507182
 C         -3.5285847081        2.8963758716       -0.0602098004
 C         -2.6576266658        3.5196574658        0.8997396517
 C         -2.7308799629        4.6953753351        1.6318717409
 C         -1.7051167883        4.9925341955        2.5099961497
 C         -0.6263683800        4.1270686858        2.6716764040
 C         -0.5313565402        2.9500145362        1.9528825863
 C         -1.5463881996        2.6583909437        1.0524437044
 C          0.5322557613        0.7051392244       -0.0584861693
 C          1.4189097102       -0.3696646046       -0.0488223117
 N          2.7872458279       -0.1528151797       -0.2419685701
 C          3.3561856909        0.5970662774       -1.2510368425
 C          2.7508804495        1.2615085440       -2.3089571609
 C          3.5673476528        1.9295980049       -3.2025852294
 C          4.9521460343        1.9327761492       -3.0589013314
 C          5.5621860400        1.2517631043       -2.0211004329
 C          4.7638656357        0.5741674868       -1.1122989241
 C          5.0468213030       -0.2343981388        0.0436093972
 C          6.2198161603       -0.6056701870        0.6833627691
 C          6.1333550640       -1.3978705556        1.8138246754
 C          4.8985299702       -1.8052983700        2.3119648700
 C          3.7155707509       -1.4457294796        1.6934383339
 C          3.7984268736       -0.6694672785        0.5453367292
 C          0.9471723364       -1.6605600064        0.1385545546
 H         -2.6260484405       -2.2013204365       -1.3123583056
 H         -5.4802708425       -5.1219476857       -0.9475623329
 H         -2.0208607820       -5.5829524798        1.2583381783
 H         -2.3390216058       -0.9598372622        0.6072191900
 H         -2.9831975183       -0.0488372431       -1.7162566015
 H         -5.1536858527        0.5980396527       -2.6772276771
 H         -6.2685748388        2.6719276191       -1.9976902777
 H         -5.2261839177        4.1798570853       -0.3376319786
 H         -3.5745298698        5.3590226771        1.5188695341
 H         -1.7421862266        5.9034677546        3.0882228901
 H          0.1515351557        4.3777212419        3.3771807654
 H          0.2985912569        2.2760296103        2.1009233766
 H          0.8940928203        1.7111616349       -0.2011568059
 H          1.6799991188        1.2467625850       -2.4424573204
 H          3.1207634068        2.4562716425       -4.0326344713
 H          5.5560134092        2.4674709706       -3.7764702964
 H          6.6366795027        1.2415074728       -1.9202600922
 H          7.1769700180       -0.2789569189        0.3062547386
 H          7.0349066342       -1.7013977095        2.3244250498
 H          4.8623010600       -2.4143713555        3.2023915267
 H          2.7643067430       -1.7583845074        2.0948363284
 H          1.6241771752       -2.5002301589        0.1200130075
