  99
       -158.10341480
 C         -0.9233883814        3.9919425564        2.0252331583
 C         -2.2784735738        4.2738628912        1.9484561049
 C         -3.1335998677        3.4056636421        1.2944445366
 C         -2.6469829530        2.2389307932        0.7136397786
 N         -3.5264281990        1.3810242174        0.0433647543
 C         -3.3566572116        0.8854425677       -1.2320809675
 C         -2.3974069909        1.2088945742       -2.1803395953
 C         -2.4559024462        0.5634361308       -3.4000447370
 C         -3.4535625226       -0.3673056448       -3.6845273088
 C         -4.4300008741       -0.6676521185       -2.7562004238
 C         -4.3873220203       -0.0380100641       -1.5181939733
 C         -5.2085715644       -0.1074592534       -0.3412388296
 C         -6.3374274022       -0.8432697785       -0.0055016068
 C         -6.8772956886       -0.6878642497        1.2556189645
 C         -6.2976557212        0.1774871351        2.1809620641
 C         -5.1734094616        0.9186156983        1.8706324841
 C         -4.6378229412        0.7812714880        0.5986368507
 C         -1.2778530810        1.9535870879        0.7931436865
 C         -0.7086836892        0.7196196988        0.2474309524
 N         -1.4306274423       -0.3931859561        0.2979263788
 C         -0.8169021215       -1.4779600591       -0.1540679758
 C         -1.4198911196       -2.7866157207        0.1340937440
 C         -2.7635381329       -3.0307461079       -0.1100781523
 C         -3.2981264118       -4.2819416312        0.1402525251
 C         -2.4959025280       -5.2897622915        0.6509937912
 C         -1.1638948772       -5.0450185941        0.9372156124
 C         -0.6159513537       -3.7934974739        0.6875639639
 N          0.7239134432       -3.5236792260        1.0119237856
 C          1.1573146314       -2.4071628524        1.7012553239
 C          0.4261382207       -1.5055151929        2.4620387966
 C          1.1002852795       -0.4298666133        3.0081829056
 C          2.4728199555       -0.2660167226        2.8332957157
 C          3.2133904338       -1.1957307834        2.1311522329
 C          2.5571651217       -2.2794656541        1.5630095097
 C          2.9872998607       -3.3890499968        0.7596597517
 C          4.2251384511       -3.7999283183        0.2848276723
 C          4.2863159448       -4.9217572348       -0.5177342695
 C          3.1317127093       -5.6226005345       -0.8585599674
 C          1.8883306352       -5.2337337516       -0.3964060362
 C          1.8239478542       -4.1204983203        0.4273750110
 N          0.3395200644       -1.4697319825       -0.7983700547
 C          1.0039148395       -0.3156553779       -0.7824214680
 C          2.3543277974       -0.3288815581       -1.3437524839
 C          2.8317249188       -1.5277061308       -1.8774793031
 C          4.1434474744       -1.6579915277       -2.2817074661
 C          5.0155144089       -0.5882396495       -2.1443253444
 C          4.5543056500        0.6165883855       -1.6496352454
 C          3.2243418867        0.7706291112       -1.2675739141
 N          2.8030582618        2.0317429320       -0.8297531134
 C          1.8196585915        2.8011565782       -1.4121591957
 C          1.0740079521        2.5568314603       -2.5552642073
 C          0.1619774772        3.5188977954       -2.9459090032
 C         -0.0086511819        4.6964939835       -2.2202582142
 C          0.7476211107        4.9536377834       -1.0944738826
 C          1.6781743970        4.0067484341       -0.6885375773
 C          2.6260079046        3.9468549393        0.3897692142
 C          2.9443296634        4.8018452664        1.4366151417
 C          3.9211921992        4.4160764244        2.3336436958
 C          4.5751677793        3.1928687261        2.2001871576
 C          4.2768137580        2.3249688444        1.1668041401
 C          3.3020629683        2.7114450048        0.2592180680
 N          0.5390970470        0.7818227517       -0.1994621931
 C         -0.4283296521        2.8396190999        1.4475340955
 H         -0.2534627482        4.6662799739        2.5361968107
 H         -2.6718065960        5.1753334076        2.3945219049
 H         -4.1871985886        3.6302157255        1.2155876125
 H         -1.6273499040        1.9374256064       -1.9720993287
 H         -1.7116764241        0.7862521414       -4.1508184628
 H         -3.4624272387       -0.8529627072       -4.6490591071
 H         -5.2107849822       -1.3786824210       -2.9825507535
 H         -6.7784571051       -1.5243698426       -0.7181911963
 H         -7.7557334022       -1.2494379782        1.5365938957
 H         -6.7343820513        0.2672605353        3.1646913335
 H         -4.7206507646        1.5738061087        2.5996154558
 H         -3.3719708893       -2.2374867240       -0.5149632078
 H         -4.3415098760       -4.4697303504       -0.0619447358
 H         -2.9119299776       -6.2672245324        0.8448305304
 H         -0.5434730135       -5.8156363044        1.3706221773
 H         -0.6376638837       -1.6267043617        2.6078718906
 H          0.5481885132        0.3021431534        3.5797186590
 H          2.9586285730        0.5985295967        3.2607239143
 H          4.2813546345       -1.0849697570        2.0156815907
 H          5.1176147579       -3.2470783614        0.5372948643
 H          5.2400948840       -5.2610150091       -0.8941737904
 H          3.2094668292       -6.4883190246       -1.4997622371
 H          0.9963296549       -5.7735275821       -0.6768658042
 H          2.1476907740       -2.3581582023       -1.9494970187
 H          4.4899541122       -2.5954464797       -2.6883918162
 H          6.0498377310       -0.6872100385       -2.4383832720
 H          5.2179422975        1.4654967737       -1.5682447410
 H          1.1987607986        1.6423636943       -3.1169941406
 H         -0.4332022355        3.3571467115       -3.8332525668
 H         -0.7399906128        5.4181278102       -2.5530394914
 H          0.6234586745        5.8728031829       -0.5418400769
 H          2.4349855185        5.7480198193        1.5437209414
 H          4.1838735067        5.0671439238        3.1542477952
 H          5.3307992206        2.9171969775        2.9214135552
 H          4.7789154537        1.3741458767        1.0712918389
 H          0.6187648980        2.5909148206        1.5134397849
