  79
  -123.730916594900       0.184541058157845      !
 C         -5.7244489141       -3.7193067404       -2.3467610114
 C         -5.7730945319       -2.5052204994       -3.0150544259
 C         -5.8059316003       -1.3077217887       -2.3129712960
 C         -5.7895187427       -1.3549346032       -0.9365777953
 C         -5.7411535291       -2.5793369733       -0.2549511175
 C         -5.7079892672       -3.7697696366       -0.9620738143
 C         -5.7381396578       -2.3114434842        1.1746090368
 C         -5.7024003770       -3.1653655227        2.2645698667
 C         -5.7132827121       -2.6171443537        3.5371038268
 C         -5.7588385352       -1.2432986634        3.7207030923
 C         -5.7942997647       -0.3810731547        2.6329584318
 C         -5.7836954140       -0.9233296007        1.3668696122
 C         -5.8183540811       -0.2036348117        0.0398491895
 C         -7.0194129247        0.6951025319       -0.1238075511
 C         -8.3538382274        0.3596694200       -0.0579090193
 C         -9.2970065905        1.3621610360       -0.2405982181
 C         -8.9061736037        2.6707625531       -0.4835511999
 C         -7.5652535310        3.0121206790       -0.5503038744
 C         -6.6179120555        2.0170365180       -0.3690834274
 C         -5.1664849532        2.0628887966       -0.3816856204
 C         -4.2850986023        3.1161203278       -0.5780916410
 C         -2.9277104423        2.8636907360       -0.5358527896
 C         -2.4411916554        1.5749034308       -0.3013458610
 C         -1.0022195263        1.3358930103       -0.2633694095
 N         -0.5812333600        0.0845713743       -0.0690139996
 C          0.7150961152       -0.1275427153       -0.0291294224
 C          1.6587161607        0.8918145070       -0.1893444588
 C          3.0993245111        0.6524761190       -0.1448061692
 C          3.6475202868       -0.4992052299       -0.7085713691
 C          5.0070738585       -0.7288475939       -0.6633181446
 C          5.8533754971        0.1922608887       -0.0504443087
 N          7.2320168830       -0.0409344876        0.0032786299
 C          8.0179522519        0.0256487580        1.1377776511
 C          7.6530358701        0.2792709754        2.4520635558
 C          8.6455227252        0.2550063747        3.4131583355
 C          9.9702964107       -0.0229655095        3.0841860244
 C         10.3352014748       -0.2994494731        1.7818487392
 C          9.3554627688       -0.2805641428        0.7979686093
 C          9.3698249308       -0.5357503352       -0.6153815126
 C         10.3745401745       -0.8600642963       -1.5173085423
 C         10.0433617022       -1.0170769541       -2.8482877006
 C          8.7328203975       -0.8401862901       -3.2861491452
 C          7.7159390638       -0.5175086495       -2.4079384531
 C          8.0385539629       -0.3819766631       -1.0654213799
 C          5.3135852695        1.3465943048        0.5121160277
 C          3.9533620897        1.5712600716        0.4644129496
 C          1.1073621005        2.1602317969       -0.3930660180
 N         -0.1880513483        2.3808080486       -0.4250635414
 C         -3.3286812344        0.5119991572       -0.1027454457
 C         -4.6772072644        0.7676112648       -0.1444924415
 H         -5.6992445700       -4.6380839053       -2.9146700540
 H         -5.7855712846       -2.4908235667       -4.0949932635
 H         -5.8435620659       -0.3613877943       -2.8328848774
 H         -5.6702641467       -4.7179182249       -0.4464381884
 H         -5.6666528045       -4.2358463394        2.1264384309
 H         -5.6859617965       -3.2678208911        4.3991559182
 H         -5.7664932602       -0.8390730639        4.7223037066
 H         -5.8302956292        0.6893102666        2.7754094297
 H         -8.6581179674       -0.6595932896        0.1308501571
 H        -10.3485218790        1.1199905463       -0.1932089288
 H         -9.6587577916        3.4333043199       -0.6221731637
 H         -7.2651522393        4.0320041144       -0.7397018166
 H         -4.6528535324        4.1148222868       -0.7610698774
 H         -2.2138248753        3.6584015669       -0.6853508966
 H          1.0195457754       -1.1504234567        0.1588903372
 H          3.0019809726       -1.2141288930       -1.1969484875
 H          5.4211706305       -1.6307617484       -1.0885929465
 H          6.6261822095        0.4768426915        2.7207727462
 H          8.3869814771        0.4517591184        4.4431964491
 H         10.7168298099       -0.0308613678        3.8643543841
 H         11.3588011772       -0.5312218951        1.5290169908
 H         11.3931746571       -0.9806734033       -1.1807282536
 H         10.8095425938       -1.2709011595       -3.5656481596
 H          8.5067988815       -0.9537829297       -4.3361673534
 H          6.7068635049       -0.3642626257       -2.7600805889
 H          5.9690318012        2.0697566737        0.9737719520
 H          3.5443250652        2.4628394708        0.9163034190
 H          1.7369694704        3.0273004852       -0.5551995631
 H         -2.9413813376       -0.4784324652        0.0780072872
  79
  -123.730806958900       0.164326569702846      !
 C         -5.8312524676       -2.7402132793       -3.4532791481
 C         -5.8193657508       -1.3720454778       -3.6795210140
 C         -5.8099893808       -0.4758231324       -2.6189106054
 C         -5.8105581966       -0.9787255113       -1.3366412114
 C         -5.8192685314       -2.3608491429       -1.1011710237
 C         -5.8310229142       -3.2487865427       -2.1641573258
 C         -5.8153383823       -2.5835859098        0.3360128662
 C         -5.8225776349       -3.7523935501        1.0789769313
 C         -5.8175973693       -3.6593151135        2.4616023197
 C         -5.8044225417       -2.4243633747        3.0922598748
 C         -5.7980361932       -1.2482747560        2.3539152728
 C         -5.8034859287       -1.3375243156        0.9794605445
 C         -5.8151409398       -0.2172950113       -0.0318457167
 C         -7.0109395381        0.6946912664        0.1028832628
 C         -8.3475659502        0.3624801688        0.0753362076
 C         -9.2836719295        1.3783925239        0.2153890480
 C         -8.8840046960        2.6969049583        0.3774806447
 C         -7.5408718301        3.0348044901        0.4053198336
 C         -6.6006624975        2.0259794801        0.2674700578
 C         -5.1492322492        2.0643676269        0.2613694427
 C         -4.2633632184        3.1249157729        0.3826022444
 C         -2.9075140418        2.8654795679        0.3413367507
 C         -2.4275387467        1.5620354952        0.1889247763
 C         -0.9886326039        1.3203486022        0.1586150898
 N         -0.1771771007        2.3799538775        0.1618837414
 C          1.1181979976        2.1613080671        0.1288989964
 C          1.6744408595        0.8782254788        0.1126284692
 C          3.1154801997        0.6418508637        0.0914772627
 C          3.9860499314        1.4910692020        0.7751954726
 C          5.3472802345        1.2696368238        0.7598653222
 C          5.8749573247        0.1945989742        0.0479428808
 N          7.2555073171       -0.0288545262        0.0260878235
 C          8.2232144906        0.9141039260       -0.2633202031
 C          8.0795638310        2.2412170125       -0.6419026584
 C          9.2271226682        2.9647005510       -0.9053856846
 C         10.4906850659        2.3864669049       -0.8064005671
 C         10.6384929470        1.0596312459       -0.4546596539
 C          9.4998297461        0.3121832607       -0.1842441396
 C          9.2829350518       -1.0603108877        0.1787381023
 C         10.1349724385       -2.1291516090        0.4234414033
 C          9.5862859200       -3.3425296991        0.7875814896
 C          8.2080798665       -3.4932653220        0.9234023308
 C          7.3401642580       -2.4445874468        0.6852526915
 C          7.8843140185       -1.2295391503        0.2947908483
 C          5.0129820790       -0.6556500823       -0.6413580697
 C          3.6515609527       -0.4360505276       -0.6136223557
 C          0.7328018471       -0.1560056099        0.1184469237
 N         -0.5644400521        0.0557786847        0.1304136762
 C         -3.3197169290        0.4914650581        0.0661966380
 C         -4.6674977975        0.7544058196        0.0991316461
 H         -5.8410253995       -3.4180945759       -4.2945141268
 H         -5.8187231553       -0.9987840637       -4.6930930219
 H         -5.8019903998        0.5902290208       -2.7944545527
 H         -5.8398961702       -4.3150853767       -1.9931355402
 H         -5.8332221980       -4.7163427645        0.5921159205
 H         -5.8246778211       -4.5607111857        3.0571713068
 H         -5.8007880655       -2.3765509844        4.1712962294
 H         -5.7901598910       -0.2860563905        2.8451527900
 H         -8.6588923831       -0.6642437732       -0.0513576937
 H        -10.3367422001        1.1390471965        0.1980042392
 H         -9.6314029185        3.4695829339        0.4844659575
 H         -7.2333809008        4.0620909879        0.5328094917
 H         -4.6265777032        4.1344880114        0.5048406558
 H         -2.1894581539        3.6656579751        0.4291077170
 H          1.7431037168        3.0460238156        0.0961148579
 H          3.5886028144        2.3151820171        1.3488957020
 H          6.0104328127        1.9168922371        1.3139990789
 H          7.1042941002        2.6938861201       -0.7398747447
 H          9.1417754378        4.0006672675       -1.1986881410
 H         11.3632232819        2.9861054821       -1.0189419205
 H         11.6164228398        0.6061828545       -0.3953022104
 H         11.2038564233       -2.0070422140        0.3338470143
 H         10.2308093968       -4.1873407425        0.9795036927
 H          7.8086257903       -4.4501512693        1.2255174824
 H          6.2750648087       -2.5669483516        0.8126501866
 H          5.4203164268       -1.4765129177       -1.2123581539
 H          2.9963088308       -1.0893669095       -1.1704183742
 H          1.0386016570       -1.1954658489        0.1320128440
 H         -2.9365747959       -0.5098485815       -0.0532955926
  79
  -123.730768829300       0.157828212758034      !
 C         -5.7758655897       -4.2221823134       -1.0913041732
 C         -5.8222279747       -3.2597591728       -2.0885799890
 C         -5.8397961212       -1.9079138302       -1.7717966700
 C         -5.8101777278       -1.5464915170       -0.4431053559
 C         -5.7634579385       -2.5144274493        0.5699804776
 C         -5.7460747395       -3.8610006544        0.2461797825
 C         -5.7432087430       -1.8349643380        1.8558061218
 C         -5.7022355232       -2.3283667048        3.1491735419
 C         -5.6951520588       -1.4280841327        4.2024795070
 C         -5.7283514545       -0.0611328845        3.9715935868
 C         -5.7692675662        0.4409660841        2.6776055343
 C         -5.7764298415       -0.4514631264        1.6285747438
 C         -5.8210710535       -0.1566624566        0.1494445202
 C         -7.0189781054        0.6562949701       -0.2760730551
 C         -8.3539462597        0.3785338714       -0.0806778360
 C         -9.2939211974        1.2760762963       -0.5692435893
 C         -8.8993965991        2.4243342672       -1.2401926852
 C         -7.5578493404        2.7067546050       -1.4393258476
 C         -6.6136124972        1.8164900525       -0.9531608154
 C         -5.1621991765        1.8398178970       -0.9989834400
 C         -4.2775811940        2.7536913759       -1.5529625385
 C         -2.9210872930        2.5167836701       -1.4425249138
 C         -2.4388690055        1.3857889571       -0.7789093044
 C         -1.0006286523        1.1644070234       -0.6678276081
 N         -0.5810496606        0.1719213906        0.1191013609
 C          0.7146364475       -0.0250157729        0.2194995367
 C          1.6563767899        0.7546853695       -0.4579107277
 C          3.0963613211        0.5364737907       -0.3432350396
 C          3.9182991727        0.6178672215       -1.4662646259
 C          5.2774289924        0.4073205400       -1.3618815431
 C          5.8522794627        0.1359661249       -0.1218820971
 N          7.2329201347       -0.0557896876       -0.0108700344
 C          7.8573247056       -1.0885261132        0.6633647589
 C          7.3058249206       -2.1802166877        1.3186039245
 C          8.1699436162       -3.0910270167        1.8960643737
 C          9.5517824310       -2.9334473611        1.8192677186
 C         10.1069146910       -1.8657080274        1.1431558932
 C          9.2586214503       -0.9368177017        0.5554052006
 C          9.4830917682        0.2506223359       -0.2205005131
 C         10.6292381016        0.9118266712       -0.6413245287
 C         10.4913345184        2.0736644140       -1.3737115416
 C          9.2308210280        2.5868699169       -1.6700664188
 C          8.0761601646        1.9466960840       -1.2619631906
 C          8.2077060286        0.7625110787       -0.5510619156
 C          5.0371792028        0.0616842760        1.0057211264
 C          3.6750644584        0.2469032880        0.8915301771
 C          1.1068846287        1.7639752964       -1.2534977517
 N         -0.1877153494        1.9667710616       -1.3579331505
 C         -3.3293178633        0.4629800927       -0.2205546898
 C         -4.6769768835        0.6970294715       -0.3417495391
 H         -5.7630227903       -5.2680453535       -1.3621750309
 H         -5.8450453347       -3.5651622963       -3.1243287724
 H         -5.8757382871       -1.1572258967       -2.5479973855
 H         -5.7097897527       -4.6146981300        1.0188595871
 H         -5.6760637163       -3.3921090215        3.3340912436
 H         -5.6639407749       -1.7952325594        5.2180937921
 H         -5.7226241628        0.6215631576        4.8086363174
 H         -5.7950746979        1.5058300997        2.4971540014
 H         -8.6608640354       -0.5161865189        0.4412611871
 H        -10.3457544428        1.0775538472       -0.4253686282
 H         -9.6496029605        3.1073267047       -1.6112902024
 H         -7.2550228753        3.6020235280       -1.9617255420
 H         -4.6418548649        3.6336710188       -2.0620195176
 H         -2.2049086207        3.2048279192       -1.8637740127
 H          1.0201158162       -0.8506199389        0.8518177068
 H          3.4808716623        0.8174366123       -2.4335597136
 H          5.9010582335        0.4358427590       -2.2425964130
 H          6.2371893182       -2.3249301164        1.3675261328
 H          7.7639102826       -3.9463440861        2.4158778847
 H         10.1933192698       -3.6649035915        2.2877701441
 H         11.1778000598       -1.7524798086        1.0666509702
 H         11.6056409829        0.5235052919       -0.3941161999
 H         11.3695350003        2.6015488595       -1.7144544334
 H          9.1533572259        3.5078845633       -2.2289212036
 H          7.1056568070        2.3662079811       -1.4799319659
 H          5.4813811566       -0.1225227974        1.9721409308
 H          3.0533938918        0.2009154694        1.7735988346
 H          1.7390389284        2.4449619945       -1.8114457418
 H         -2.9454870494       -0.4086117782        0.2860261110
  79
  -123.730673054000       0.142616363449101      !
 C         -6.0127707266       -3.7036682784       -2.3439502818
 C         -6.0596920310       -2.4851976569       -3.0044829276
 C         -5.9949246238       -1.2908912400       -2.2991466192
 C         -5.8822516309       -1.3456393603       -0.9274587130
 C         -5.8335042188       -2.5744732154       -0.2537707759
 C         -5.8991889433       -3.7617089717       -0.9640362002
 C         -5.7158378299       -2.3142697940        1.1723665128
 C         -5.6314396767       -3.1742629153        2.2547332122
 C         -5.5237986314       -2.6323219656        3.5254117764
 C         -5.5008970017       -1.2588114954        3.7147332204
 C         -5.5864633238       -0.3904053004        2.6346434163
 C         -5.6939105040       -0.9262889470        1.3705021383
 C         -5.8066560811       -0.1990038893        0.0520822525
 C         -7.0011983017        0.7209940737       -0.0205991352
 C         -8.3321557343        0.4083818387        0.1475202238
 C         -9.2690343983        1.4271180419        0.0368922193
 C         -8.8753118564        2.7288153782       -0.2367843121
 C         -7.5377789361        3.0469216943       -0.4068599792
 C         -6.5966402242        2.0354743368       -0.2978385300
 C         -5.1493744083        2.0566563429       -0.4158936575
 C         -4.2666917237        3.0961076450       -0.6711398477
 C         -2.9129233666        2.8243635823       -0.7099509008
 C         -2.4315793706        1.5293735194       -0.5005282123
 C         -0.9948190324        1.2751921919       -0.5153768453
 N         -0.1752879271        2.3114717967       -0.7047297387
 C          1.1188913441        2.0858558768       -0.6615377351
 C          1.6644356340        0.8174127503       -0.4407651143
 C          3.1024820024        0.5792365393       -0.3442945809
 C          4.0051086320        1.2899976893       -1.1349049592
 C          5.3642421719        1.0848713422       -1.0145183206
 C          5.8549499327        0.1563682466       -0.0992873842
 N          7.2323838561       -0.0419137486        0.0434658910
 C          8.1345046255       -0.2630047248       -0.9795963373
 C          7.9119598812       -0.3940790690       -2.3427689793
 C          9.0026317711       -0.6448089817       -3.1534072540
 C         10.2862719350       -0.7726685332       -2.6277741276
 C         10.5102170521       -0.6689769574       -1.2695951852
 C          9.4298599554       -0.4168134616       -0.4346091879
 C          9.2949747843       -0.2729383874        0.9880094173
 C         10.2001755429       -0.3034628443        2.0406054020
 C          9.7310023759       -0.0994042305        3.3227169152
 C          8.3811403477        0.1497972016        3.5597656692
 C          7.4616720306        0.1848775923        2.5289282102
 C          7.9229364204       -0.0462442216        1.2409184122
 C          4.9587983007       -0.5688049393        0.6829672603
 C          3.6016018940       -0.3560329487        0.5624014731
 C          0.7149722212       -0.1996301023       -0.2988914469
 N         -0.5801197814        0.0211754593       -0.3266665960
 C         -3.3211178721        0.4783734304       -0.2528668154
 C         -4.6658522135        0.7534253979       -0.2116135447
 H         -6.0659609767       -4.6198323399       -2.9141114454
 H         -6.1481997120       -2.4647953530       -4.0808555076
 H         -6.0326305709       -0.3412515203       -2.8130867591
 H         -5.8627599312       -4.7131185639       -0.4543855007
 H         -5.6485689795       -4.2447544342        2.1126357030
 H         -5.4574350850       -3.2882061245        4.3814238825
 H         -5.4167396010       -0.8594152394        4.7147757390
 H         -5.5690694573        0.6798894241        2.7814298522
 H         -8.6383502232       -0.6055677795        0.3603517743
 H        -10.3177407786        1.2033159419        0.1659762871
 H         -9.6230368744        3.5043896661       -0.3172943538
 H         -7.2355604570        4.0616300093       -0.6192171151
 H         -4.6302541925        4.1002213589       -0.8316656735
 H         -2.1977517678        3.6094746540       -0.8991792413
 H          1.7520007269        2.9565253740       -0.7857794921
 H          3.6373458697        2.0052297347       -1.8556755496
 H          6.0556442092        1.6567709888       -1.6150785147
 H          6.9189400630       -0.3157769879       -2.7592662196
 H          8.8555090535       -0.7475585917       -4.2184271826
 H         11.1129558291       -0.9653402309       -3.2951551562
 H         11.5020938457       -0.7847934291       -0.8593856943
 H         11.2490530642       -0.4779135983        1.8541252221
 H         10.4174495740       -0.1221632195        4.1559634363
 H          8.0454618549        0.3232280804        4.5716327606
 H          6.4213023888        0.3986241617        2.7226777015
 H          5.3342363592       -1.3057559738        1.3769370379
 H          2.9184748777       -0.9100791349        1.1890133764
 H          1.0129533996       -1.2339363366       -0.1732211184
 H         -2.9378455737       -0.5173243730       -0.0939565739
  79
  -123.730649856900       0.139158170094094      !
 C         -5.6815654530       -2.8312909549       -3.4305636536
 C         -5.6750797158       -1.4706052438       -3.6976737261
 C         -5.7152067543       -0.5426788753       -2.6653692302
 C         -5.7599875080       -1.0061377671       -1.3691210623
 C         -5.7648010296       -2.3811658720       -1.0927098997
 C         -5.7262342439       -3.3007840008       -2.1275590158
 C         -5.8117394397       -2.5618799641        0.3497070561
 C         -5.8363651788       -3.7071494506        1.1283844875
 C         -5.8805268013       -3.5714023261        2.5067220592
 C         -5.8991082039       -2.3177895094        3.0991684046
 C         -5.8761907479       -1.1652473102        2.3251967703
 C         -5.8330007073       -1.2976228943        0.9550416443
 C         -5.8135488101       -0.2068300201       -0.0908912499
 C         -7.0118324404        0.7058440562        0.0099911916
 C         -8.3460502090        0.3809059794       -0.0987264123
 C         -9.2859781552        1.3931567420        0.0418734003
 C         -8.8922588151        2.7001525749        0.2890541331
 C         -7.5515284072        3.0305066911        0.4001978647
 C         -6.6073148082        2.0259653676        0.2589046250
 C         -5.1564285599        2.0608444210        0.3115301741
 C         -4.2738425636        3.1085443947        0.5298282606
 C         -2.9173423667        2.8486497825        0.5141504273
 C         -2.4333116714        1.5604988570        0.2725355950
 C         -0.9939901449        1.3205494643        0.2406360887
 N         -0.1869871409        2.3035221809        0.6446803049
 C          1.1089901433        2.0861589261        0.6091549279
 C          1.6654943154        0.8828522018        0.1672708359
 C          3.1070187036        0.6482868960        0.1256719157
 C          3.9245639059        1.0673532855        1.1742482459
 C          5.2838991478        0.8349543506        1.1445574207
 C          5.8634678947        0.2004590353        0.0475505508
 N          7.2425985323       -0.0271482494        0.0102636919
 C          8.2255277086        0.9013969184        0.2986174769
 C          8.1075503740        2.2456274249        0.6215885593
 C          9.2688682739        2.9616055186        0.8415841079
 C         10.5231265233        2.3655194453        0.7339350175
 C         10.6483064307        1.0362591140        0.3833867938
 C          9.4952442518        0.2962569593        0.1580701940
 C          9.2585280207       -1.0655067098       -0.2318506751
 C         10.0967797546       -2.1392660462       -0.5005399512
 C          9.5305719931       -3.3528431119       -0.8352890586
 C          8.1472144509       -3.5071649717       -0.8844228747
 C          7.2930605599       -2.4535151215       -0.6203921829
 C          7.8562281406       -1.2232387719       -0.3130165410
 C          5.0535363086       -0.2065588229       -1.0108468978
 C          3.6908819230        0.0029383750       -0.9633734539
 C          0.7296472038       -0.0758595564       -0.2307350600
 N         -0.5676284110        0.1338447021       -0.1949183582
 C         -3.3218184440        0.5019401085        0.0574713131
 C         -4.6700324644        0.7621165122        0.0864984233
 H         -5.6505206361       -3.5343936137       -4.2503136747
 H         -5.6385349120       -1.1282247533       -4.7214353926
 H         -5.7104981666        0.5175669094       -2.8730157695
 H         -5.7302665650       -4.3615600643       -1.9245421522
 H         -5.8218863847       -4.6858965843        0.6722583826
 H         -5.9008283943       -4.4539475320        3.1296098283
 H         -5.9327653332       -2.2367254960        4.1757176129
 H         -5.8920033901       -0.1880383229        2.7857299645
 H         -8.6524648073       -0.6372863485       -0.2896878433
 H        -10.3372117910        1.1599352879       -0.0419004748
 H         -9.6425107789        3.4701613290        0.3955162520
 H         -7.2491941348        4.0493483641        0.5920118514
 H         -4.6396861215        4.1088392389        0.7082342755
 H         -2.2022860477        3.6388454086        0.6813953265
 H          1.7363558441        2.9105656655        0.9274341261
 H          3.4830961788        1.5497549385        2.0339964934
 H          5.9035254060        1.1273912696        1.9787600581
 H          7.1425714716        2.7248737295        0.6876464911
 H          9.2018392545        4.0084335263        1.0994552071
 H         11.4067719423        2.9579728305        0.9184804570
 H         11.6202269493        0.5775805674        0.2813782712
 H         11.1684505102       -2.0230447501       -0.4431428888
 H         10.1641903534       -4.1998312514       -1.0524254962
 H          7.7318116691       -4.4731445608       -1.1311414808
 H          6.2227682457       -2.5921884335       -0.6406507645
 H          5.5018367675       -0.6719850133       -1.8756032811
 H          3.0726089072       -0.3073523311       -1.7928518251
 H          1.0416314573       -1.0551386571       -0.5744271177
 H         -2.9364800613       -0.4893988554       -0.1228427313
  79
  -123.730485427800       0.116934409511660      !
 C         -5.9012722381       -4.1973621515       -1.1717132027
 C         -5.9182342596       -3.2127804725       -2.1481114964
 C         -5.8877038116       -1.8683003713       -1.8025913269
 C         -5.8397151113       -1.5366712429       -0.4667099800
 C         -5.8206083771       -2.5269663340        0.5253548454
 C         -5.8516800204       -3.8661542874        0.1729524286
 C         -5.7683490095       -1.8760630028        1.8249990440
 C         -5.7314512884       -2.3983907351        3.1071281535
 C         -5.6818350791       -1.5216582096        4.1791264275
 C         -5.6685839828       -0.1497600049        3.9774483389
 C         -5.7069132556        0.3812449142        2.6949552064
 C         -5.7569463650       -0.4875455054        1.6273383760
 C         -5.8128731416       -0.1596790397        0.1561189189
 C         -7.0100766366        0.6702987890       -0.2400455694
 C         -8.3439208181        0.4071630382       -0.0184894540
 C         -9.2830636352        1.3165860092       -0.4862240664
 C         -8.8888058242        2.4607675423       -1.1642495236
 C         -7.5484192890        2.7277127069       -1.3905595145
 C         -6.6048786212        1.8263809266       -0.9237932873
 C         -5.1541941790        1.8364740931       -0.9917307600
 C         -4.2709003885        2.7449747569       -1.5562388526
 C         -2.9145629020        2.5020772988       -1.4577850019
 C         -2.4316021687        1.3724763078       -0.7927018279
 C         -0.9924522775        1.1545293670       -0.6832685306
 N         -0.5655871015        0.2179120712        0.1653547833
 C          0.7315806169        0.0319285756        0.2708122271
 C          1.6665622341        0.7645147372       -0.4658906014
 C          3.1079584348        0.5581399344       -0.3457656863
 C          3.9217419073        0.5532492024       -1.4776860607
 C          5.2809881557        0.3451115506       -1.3683662913
 C          5.8650493425        0.1652272473       -0.1159590641
 N          7.2441516395       -0.0336877487       -0.0003738921
 C          7.8586383081       -1.0168992374        0.7532874301
 C          7.2967861446       -2.0387982561        1.5051919273
 C          8.1519674329       -2.9113860454        2.1509228630
 C          9.5352313953       -2.7858221554        2.0471385893
 C         10.1002642715       -1.7909836319        1.2748085512
 C          9.2608520683       -0.9013986331        0.6175673346
 C          9.4967654900        0.2102561602       -0.2605125242
 C         10.6498304053        0.8089003149       -0.7503502999
 C         10.5247246436        1.9052136236       -1.5797755931
 C          9.2703700960        2.4164498540       -1.9042806100
 C          8.1089925600        1.8376122836       -1.4288435202
 C          8.2267881113        0.7162203416       -0.6201295499
 C          5.0588085388        0.1850586272        1.0206149797
 C          3.6961952005        0.3644876609        0.9032682153
 C          1.1090690324        1.7137799642       -1.3269160560
 N         -0.1867038289        1.9084098033       -1.4335667478
 C         -3.3207412630        0.4524334436       -0.2278635939
 C         -4.6687877179        0.6898783685       -0.3408089953
 H         -5.9272486863       -5.2369523229       -1.4647487744
 H         -5.9556162919       -3.4949583817       -3.1900536545
 H         -5.9026677959       -1.1004220663       -2.5625201794
 H         -5.8404874693       -4.6369544120        0.9292991420
 H         -5.7414979696       -3.4660994725        3.2691869872
 H         -5.6535138836       -1.9114542170        5.1863888670
 H         -5.6287597606        0.5140904216        4.8285385605
 H         -5.6972017082        1.4500062005        2.5372880146
 H         -8.6504936400       -0.4851668208        0.5076908953
 H        -10.3340182640        1.1304115033       -0.3207113260
 H         -9.6384626414        3.1524554111       -1.5201707327
 H         -7.2458662526        3.6209112030       -1.9166841912
 H         -4.6359134770        3.6260029494       -2.0629268859
 H         -2.1992214658        3.1860569440       -1.8870517423
 H          1.0436709254       -0.7459812184        0.9578411342
 H          3.4770906236        0.6778046169       -2.4541651839
 H          5.8968452376        0.3033061327       -2.2539952468
 H          6.2266830498       -2.1617283268        1.5759041907
 H          7.7372947623       -3.7109157023        2.7470048614
 H         10.1695860160       -3.4837940233        2.5727711937
 H         11.1719264415       -1.7027210388        1.1792079049
 H         11.6216278139        0.4233345244       -0.4814126010
 H         11.4083927862        2.3838078401       -1.9748498065
 H          9.2032279588        3.2870325818       -2.5400197886
 H          7.1442540945        2.2569924916       -1.6711953971
 H          5.5101597170        0.0766353197        1.9952093127
 H          3.0811258232        0.3853807945        1.7910102990
 H          1.7355927786        2.3526268967       -1.9384088550
 H         -2.9361290822       -0.4185030859        0.2794105455
  79
  -123.730285080700       9.459521632641943E-002 !
 C         -5.7214064831       -2.8842348581       -3.3916216041
 C         -5.7349987284       -1.5284454427       -3.6823682568
 C         -5.7643395699       -0.5829529436       -2.6658053354
 C         -5.7791922995       -1.0238899671       -1.3610328923
 C         -5.7646932040       -2.3939186284       -1.0608468019
 C         -5.7358399662       -3.3311559559       -2.0800326959
 C         -5.7861685656       -2.5501212204        0.3850414817
 C         -5.7835282015       -3.6817544105        1.1837865158
 C         -5.8086392467       -3.5224339624        2.5601096458
 C         -5.8354646869       -2.2589524335        3.1310168059
 C         -5.8388482198       -1.1199718105        2.3369127508
 C         -5.8143759823       -1.2759282744        0.9687354133
 C         -5.8176841967       -0.2031075698       -0.0962517311
 C         -7.0150444751        0.7098273754        0.0086590700
 C         -8.3501246206        0.3834714917       -0.0839382750
 C         -9.2890948178        1.3965545499        0.0570221482
 C         -8.8934937983        2.7057579913        0.2888145612
 C         -7.5518629273        3.0375024124        0.3841936402
 C         -6.6086420365        2.0322033227        0.2423311128
 C         -5.1572282834        2.0680323300        0.2807630879
 C         -4.2727796728        3.1159143027        0.4903392743
 C         -2.9163494112        2.8547204941        0.4698564515
 C         -2.4349095237        1.5663734903        0.2258503864
 C         -0.9958638127        1.3229236281        0.1930664863
 N         -0.1916570070        2.2655113008        0.6879367024
 C          1.1034219169        2.0405690234        0.6615529393
 C          1.6603634845        0.8732266994        0.1327442091
 C          3.1014986018        0.6319744070        0.1032287859
 C          3.8899323919        0.9197777730        1.2160255925
 C          5.2487795124        0.6835753466        1.1966753360
 C          5.8579211068        0.1831862150        0.0474407935
 N          7.2384695579       -0.0368023952        0.0196405361
 C          8.2071971393        0.8510116099        0.4504593013
 C          8.0718975648        2.1423716065        0.9398507498
 C          9.2220464032        2.8276999921        1.2820214078
 C         10.4827249409        2.2544974273        1.1333957842
 C         10.6260392342        0.9822662624        0.6172869312
 C          9.4843752207        0.2738478254        0.2670414585
 C          9.2677020717       -1.0268559428       -0.3018731416
 C         10.1211767319       -2.0523611372       -0.6863617228
 C          9.5733461926       -3.2146963361       -1.1907011788
 C          8.1928351283       -3.3678644872       -1.2944251768
 C          7.3238132076       -2.3616638579       -0.9174144919
 C          7.8690252790       -1.1787225098       -0.4390923492
 C          5.0763905117       -0.0934899860       -1.0726840160
 C          3.7128636766        0.1136965058       -1.0369954349
 C          0.7277412688       -0.0411353806       -0.3637929539
 N         -0.5691791001        0.1729696898       -0.3310838089
 C         -3.3247854703        0.5084208559        0.0153984964
 C         -4.6727685827        0.7686740099        0.0559593830
 H         -5.6991497649       -3.6012686170       -4.1995002348
 H         -5.7224961884       -1.2037732104       -4.7124476587
 H         -5.7753843061        0.4733992214       -2.8919934790
 H         -5.7248606459       -4.3880812887       -1.8583795435
 H         -5.7624613776       -4.6681010045        0.7445393804
 H         -5.8073018390       -4.3941103825        3.1984393784
 H         -5.8544120255       -2.1594038091        4.2063698155
 H         -5.8602838595       -0.1350809155        2.7806471660
 H         -8.6578758663       -0.6364332642       -0.2633159404
 H        -10.3410125902        1.1622550601       -0.0145596120
 H         -9.6429744204        3.4764398717        0.3956999494
 H         -7.2481856860        4.0580357408        0.5642841334
 H         -4.6369344228        4.1167957654        0.6686264850
 H         -2.2001749212        3.6444884690        0.6348835275
 H          1.7303421721        2.8295624925        1.0603975318
 H          3.4252471371        1.3012020192        2.1135082427
 H          5.8448835022        0.8694980371        2.0772174832
 H          7.1026850495        2.6070509578        1.0396012017
 H          9.1409082691        3.8321274786        1.6707452214
 H         11.3570463001        2.8210610606        1.4172236620
 H         11.6033342119        0.5437046820        0.4832571857
 H         11.1901764552       -1.9390389128       -0.5873103339
 H         10.2190023923       -4.0228515221       -1.5005722600
 H          7.7914310881       -4.2954715513       -1.6751910948
 H          6.2555380015       -2.5022855728       -0.9827437811
 H          5.5472631183       -0.4544392738       -1.9745119317
 H          3.1159405718       -0.0959716832       -1.9125616531
 H          1.0415608609       -0.9885848705       -0.7861748979
 H         -2.9411915637       -0.4834953910       -0.1656939768
