  79
       -124.26666526
 C         -5.8680523331       -2.5552792513       -3.5318438237
 C         -5.8448060395       -1.1796334440       -3.7058209247
 C         -5.8235580044       -0.3246399383       -2.6118686982
 C         -5.8239074230       -0.8760676273       -1.3497065427
 C         -5.8440679939       -2.2660384444       -1.1670525224
 C         -5.8676288269       -3.1126418798       -2.2630536084
 C         -5.8368547845       -2.5434642781        0.2605705102
 C         -5.8517837529       -3.7396552050        0.9584700023
 C         -5.8409067668       -3.6994357675        2.3436073424
 C         -5.8144185136       -2.4896039991        3.0208176418
 C         -5.8002606101       -1.2863064213        2.3278151390
 C         -5.8115429842       -1.3230074941        0.9509902689
 C         -5.8169237457       -0.1649554586       -0.0168301783
 C         -7.0040479098        0.7516711524        0.1573451105
 C         -8.3436730179        0.4324783741        0.1225060639
 C         -9.2701711963        1.4504726377        0.3049229506
 C         -8.8581814279        2.7582889584        0.5155494565
 C         -7.5119984174        3.0830976514        0.5508711894
 C         -6.5813258584        2.0720653020        0.3709094519
 C         -5.1296433150        2.0979378443        0.3604673405
 C         -4.2339223416        3.1452856328        0.5184871167
 C         -2.8805987183        2.8757410895        0.4619372739
 C         -2.4128170520        1.5749040030        0.2580369761
 C         -0.9762420275        1.3219494011        0.2127789656
 N         -0.1553718990        2.3735071940        0.2531831404
 C          1.1378742159        2.1449358308        0.2067046791
 C          1.6826003103        0.8585828031        0.1393166242
 C          3.1213893299        0.6105683397        0.1034042994
 C          4.0019905808        1.4254247881        0.8155029160
 C          5.3611287270        1.1928184192        0.7862962991
 C          5.8765941502        0.1411385713        0.0318110792
 N          7.2550091669       -0.0934077594       -0.0040700078
 C          8.2300117395        0.8513883150       -0.2611987369
 C          8.0968037384        2.1931852939       -0.5883467579
 C          9.2497892911        2.9161096175       -0.8286543900
 C         10.5085042242        2.3234703995       -0.7568378868
 C         10.6457733442        0.9829381497       -0.4565177545
 C          9.5014949189        0.2357253323       -0.2102317075
 C          9.2737128067       -1.1476633535        0.1010409335
 C         10.1170849750       -2.2324863049        0.3014167080
 C          9.5589482861       -3.4540175362        0.6212388074
 C          8.1799610657       -3.5977416592        0.7567307891
 C          7.3205557972       -2.5331769690        0.5621989281
 C          7.8740743427       -1.3089329401        0.2161562237
 C          5.0045573413       -0.6746101502       -0.6859398594
 C          3.6452575214       -0.4443067723       -0.6444058844
 C          0.7318120857       -0.1668260998        0.1094810248
 N         -0.5634389110        0.0557071534        0.1347028865
 C         -3.3149416561        0.5176539345        0.0981662250
 C         -4.6601966562        0.7909474351        0.1464929820
 H         -5.8869475845       -3.2004642270       -4.3982583714
 H         -5.8445530022       -0.7679982180       -4.7044244937
 H         -5.8067050722        0.7472217935       -2.7466843538
 H         -5.8853747663       -4.1845699318       -2.1327626953
 H         -5.8728003737       -4.6841998075        0.4352694346
 H         -5.8538347443       -4.6227986504        2.9044114830
 H         -5.8064032765       -2.4830228921        4.1008690913
 H         -5.7820115012       -0.3436340368        2.8553341082
 H         -8.6645967231       -0.5858975299       -0.0419811367
 H        -10.3253887086        1.2212019906        0.2826432727
 H         -9.5982688466        3.5328430380        0.6548972393
 H         -7.1949021093        4.1020389343        0.7161903543
 H         -4.5876773913        4.1526039591        0.6805681161
 H         -2.1551254491        3.6656657074        0.5772677465
 H          1.7705129377        3.0247481890        0.2051634689
 H          3.6140069092        2.2305035456        1.4217825221
 H          6.0320481474        1.8126276639        1.3620382238
 H          7.1252531194        2.6577912362       -0.6650905632
 H          9.1726006883        3.9632191829       -1.0819151176
 H         11.3855652659        2.9231113675       -0.9498607541
 H         11.6198355259        0.5190032710       -0.4184005735
 H         11.1866788748       -2.1164193123        0.2122641722
 H         10.1966186566       -4.3111505588        0.7782414291
 H          7.7731077115       -4.5619189170        1.0237521435
 H          6.2548825750       -2.6509705456        0.6891020664
 H          5.4024666367       -1.4766310650       -1.2894370066
 H          2.9821744340       -1.0701400136       -1.2230707422
 H          1.0283866040       -1.2086870249        0.0821952392
 H         -2.9411762394       -0.4816915085       -0.0609356009
