  79
       -124.26666526
 C         -5.8680523331       -2.5552792513       -3.5318438237
 C         -5.8448060395       -1.1796334440       -3.7058209247
 C         -5.8235580044       -0.3246399383       -2.6118686982
 C         -5.8239074230       -0.8760676273       -1.3497065427
 C         -5.8440679939       -2.2660384444       -1.1670525224
 C         -5.8676288269       -3.1126418798       -2.2630536084
 C         -5.8368547845       -2.5434642781        0.2605705102
 C         -5.8517837529       -3.7396552050        0.9584700023
 C         -5.8409067668       -3.6994357675        2.3436073424
 C         -5.8144185136       -2.4896039991        3.0208176418
 C         -5.8002606101       -1.2863064213        2.3278151390
 C         -5.8115429842       -1.3230074941        0.9509902689
 C         -5.8169237457       -0.1649554586       -0.0168301783
 C         -7.0040479098        0.7516711524        0.1573451105
 C         -8.3436730179        0.4324783741        0.1225060639
 C         -9.2701711963        1.4504726377        0.3049229506
 C         -8.8581814279        2.7582889584        0.5155494565
 C         -7.5119984174        3.0830976514        0.5508711894
 C         -6.5813258584        2.0720653020        0.3709094519
 C         -5.1296433150        2.0979378443        0.3604673405
 C         -4.2339223416        3.1452856328        0.5184871167
 C         -2.8805987183        2.8757410895        0.4619372739
 C         -2.4128170520        1.5749040030        0.2580369761
 C         -0.9762420275        1.3219494011        0.2127789656
 N         -0.1553718990        2.3735071940        0.2531831404
 C          1.1378742159        2.1449358308        0.2067046791
 C          1.6826003103        0.8585828031        0.1393166242
 C          3.1213893299        0.6105683397        0.1034042994
 C          4.0019905808        1.4254247881        0.8155029160
 C          5.3611287270        1.1928184192        0.7862962991
 C          5.8765941502        0.1411385713        0.0318110792
 N          7.2550091669       -0.0934077594       -0.0040700078
 C          8.2300117395        0.8513883150       -0.2611987369
 C          8.0968037384        2.1931852939       -0.5883467579
 C          9.2497892911        2.9161096175       -0.8286543900
 C         10.5085042242        2.3234703995       -0.7568378868
 C         10.6457733442        0.9829381497       -0.4565177545
 C          9.5014949189        0.2357253323       -0.2102317075
 C          9.2737128067       -1.1476633535        0.1010409335
 C         10.1170849750       -2.2324863049        0.3014167080
 C          9.5589482861       -3.4540175362        0.6212388074
 C          8.1799610657       -3.5977416592        0.7567307891
 C          7.3205557972       -2.5331769690        0.5621989281
 C          7.8740743427       -1.3089329401        0.2161562237
 C          5.0045573413       -0.6746101502       -0.6859398594
 C          3.6452575214       -0.4443067723       -0.6444058844
 C          0.7318120857       -0.1668260998        0.1094810248
 N         -0.5634389110        0.0557071534        0.1347028865
 C         -3.3149416561        0.5176539345        0.0981662250
 C         -4.6601966562        0.7909474351        0.1464929820
 H         -5.8869475845       -3.2004642270       -4.3982583714
 H         -5.8445530022       -0.7679982180       -4.7044244937
 H         -5.8067050722        0.7472217935       -2.7466843538
 H         -5.8853747663       -4.1845699318       -2.1327626953
 H         -5.8728003737       -4.6841998075        0.4352694346
 H         -5.8538347443       -4.6227986504        2.9044114830
 H         -5.8064032765       -2.4830228921        4.1008690913
 H         -5.7820115012       -0.3436340368        2.8553341082
 H         -8.6645967231       -0.5858975299       -0.0419811367
 H        -10.3253887086        1.2212019906        0.2826432727
 H         -9.5982688466        3.5328430380        0.6548972393
 H         -7.1949021093        4.1020389343        0.7161903543
 H         -4.5876773913        4.1526039591        0.6805681161
 H         -2.1551254491        3.6656657074        0.5772677465
 H          1.7705129377        3.0247481890        0.2051634689
 H          3.6140069092        2.2305035456        1.4217825221
 H          6.0320481474        1.8126276639        1.3620382238
 H          7.1252531194        2.6577912362       -0.6650905632
 H          9.1726006883        3.9632191829       -1.0819151176
 H         11.3855652659        2.9231113675       -0.9498607541
 H         11.6198355259        0.5190032710       -0.4184005735
 H         11.1866788748       -2.1164193123        0.2122641722
 H         10.1966186566       -4.3111505588        0.7782414291
 H          7.7731077115       -4.5619189170        1.0237521435
 H          6.2548825750       -2.6509705456        0.6891020664
 H          5.4024666367       -1.4766310650       -1.2894370066
 H          2.9821744340       -1.0701400136       -1.2230707422
 H          1.0283866040       -1.2086870249        0.0821952392
 H         -2.9411762394       -0.4816915085       -0.0609356009
  79
       -124.26666243
 C         -5.7659210515       -3.5767695041       -2.4638830303
 C         -5.8061972734       -2.3376934702       -3.0852173146
 C         -5.8257906660       -1.1676075500       -2.3378772349
 C         -5.8047543515       -1.2674343081       -0.9643600008
 C         -5.7648015599       -2.5173247423       -0.3300943131
 C         -5.7448365071       -3.6801606490       -1.0822022529
 C         -5.7541613753       -2.3041974390        1.1086140586
 C         -5.7220365706       -3.1993578284        2.1650848954
 C         -5.7233699777       -2.7000056975        3.4576224099
 C         -5.7560107953       -1.3338174941        3.6936316762
 C         -5.7877754610       -0.4304469760        2.6396907451
 C         -5.7866432609       -0.9240823862        1.3538220876
 C         -5.8197522546       -0.1540125686        0.0553455628
 C         -7.0133481215        0.7608040967       -0.0691295855
 C         -8.3504584251        0.4348077472       -0.0107233043
 C         -9.2853211642        1.4517653224       -0.1512946166
 C         -8.8837381281        2.7652072694       -0.3457575243
 C         -7.5400836991        3.0970997624       -0.4048174899
 C         -6.6009874297        2.0875634262       -0.2654482259
 C         -5.1492653622        2.1211424284       -0.2821026397
 C         -4.2592562775        3.1733356930       -0.4417492678
 C         -2.9040252527        2.9075934058       -0.4145952193
 C         -2.4281516562        1.6065844337       -0.2313284127
 C         -0.9912365161        1.3536987134       -0.2082487023
 N         -0.5807058737        0.0922326534       -0.0634136749
 C          0.7138198521       -0.1326001574       -0.0368312154
 C          1.6658905980        0.8838187975       -0.1618536054
 C          3.1044630123        0.6303407035       -0.1322359262
 C          3.6403063678       -0.5037555799       -0.7416760438
 C          4.9979167697       -0.7468620686       -0.7106499944
 C          5.8546318782        0.1427446481       -0.0665065698
 N          7.2313285976       -0.1044024975       -0.0272288429
 C          8.0219789442       -0.0880360129        1.1058289356
 C          7.6641562923        0.1184525867        2.4302763835
 C          8.6599035799        0.0488458076        3.3857680577
 C          9.9809334927       -0.2279725316        3.0411406585
 C         10.3385849410       -0.4577610718        1.7277617487
 C          9.3554537712       -0.3927719436        0.7492454157
 C          9.3623614403       -0.5939723305       -0.6728500523
 C         10.3608348580       -0.8924356297       -1.5904965672
 C         10.0233944932       -0.9956520002       -2.9251568446
 C          8.7128850911       -0.7907091675       -3.3507094328
 C          7.7021446429       -0.4928695986       -2.4567755070
 C          8.0308727445       -0.4114825411       -1.1113702274
 C          5.3272128926        1.2794632712        0.5417970081
 C          3.9688795965        1.5176963005        0.5081359076
 C          1.1251160917        2.1638671247       -0.3148745457
 N         -0.1683893505        2.3968467124       -0.3332568859
 C         -3.3243418197        0.5446956106       -0.0698332403
 C         -4.6706809691        0.8135215526       -0.0964099657
 H         -5.7509850418       -4.4733990187       -3.0664938894
 H         -5.8225034454       -2.2820010133       -4.1637641578
 H         -5.8568938700       -0.2018354613       -2.8211898423
 H         -5.7136704990       -4.6475835762       -0.6032339983
 H         -5.6963341396       -4.2640621759        1.9861117161
 H         -5.6986877265       -3.3833083627        4.2941320938
 H         -5.7563926795       -0.9680433765        4.7099337325
 H         -5.8137112078        0.6339974450        2.8229775949
 H         -8.6631130705       -0.5882082134        0.1402670104
 H        -10.3387715224        1.2171870663       -0.1089616817
 H         -9.6300017940        3.5390477142       -0.4522021662
 H         -7.2316041191        4.1207969564       -0.5564057194
 H         -4.6187671085        4.1814751823       -0.5850568363
 H         -2.1836404775        3.7011424600       -0.5365512187
 H          1.0098314143       -1.1645374778        0.1108459947
 H          2.9866375354       -1.1938440315       -1.2543592272
 H          5.4024001900       -1.6354905407       -1.1716451538
 H          6.6400953927        0.3146205922        2.7104281989
 H          8.4069026161        0.2084197559        4.4235832638
 H         10.7302214277       -0.2721658835        3.8174470853
 H         11.3591455255       -0.6886807487        1.4621852144
 H         11.3795811888       -1.0347184026       -1.2628373194
 H         10.7846491256       -1.2286300767       -3.6547310454
 H          8.4820134043       -0.8621823070       -4.4033812784
 H          6.6931905247       -0.3174650347       -2.7987795094
 H          5.9907639432        1.9787166512        1.0280529840
 H          3.5694611673        2.3949382708        0.9953130342
 H          1.7618249236        3.0309391323       -0.4463615558
 H         -2.9452214035       -0.4552662547        0.0714874486
  79
       -124.26654116
 C         -5.7693419013       -1.7928680221       -3.9848098922
 C         -5.8013297338       -0.4104134324       -3.8810654412
 C         -5.8204219041        0.2090786296       -2.6384829629
 C         -5.8069384539       -0.5830302005       -1.5118482645
 C         -5.7748032007       -1.9811754650       -1.6097398305
 C         -5.7557975927       -2.5918990421       -2.8527458489
 C         -5.7695631639       -2.5371389850       -0.2657514216
 C         -5.7458467624       -3.8479534291        0.1804850729
 C         -5.7504273218       -4.0838472264        1.5458954421
 C         -5.7781989827       -3.0330636757        2.4503559925
 C         -5.8018344891       -1.7162198432        2.0104170578
 C         -5.7973723738       -1.4786012741        0.6537799293
 C         -5.8227725114       -0.1515851503       -0.0639313855
 C         -7.0137124232        0.7079784705        0.2821304557
 C         -8.3515508803        0.3948183889        0.1842043682
 C         -9.2836276612        1.3540951216        0.5568339535
 C         -8.8785486334        2.5992559809        1.0148777632
 C         -7.5340758158        2.9181957210        1.1140472947
 C         -6.5976937857        1.9653666778        0.7455148860
 C         -5.1457768702        1.9997051029        0.7438803999
 C         -4.2525527723        2.9998623479        1.0994682910
 C         -2.8979999167        2.7488316742        0.9966694799
 C         -2.4262832254        1.5107803105        0.5530690078
 C         -0.9899702584        1.2682754741        0.4631752794
 N         -0.5821925105        0.0244387562        0.2044882264
 C          0.7117577082       -0.1926835953        0.1256387063
 C          1.6634137048        0.8161786100        0.2995390373
 C          3.1014310912        0.5729130163        0.2143914955
 C          3.9376467381        1.4801842848       -0.4344570319
 C          5.2949601667        1.2506146604       -0.5208146829
 C          5.8535920234        0.1168197734        0.0658065839
 N          7.2323652124       -0.1060887436       -0.0017132001
 C          7.8463025294       -1.2911287729       -0.3619620714
 C          7.2845634261       -2.4863729001       -0.7875432550
 C          8.1396421553       -3.5217055970       -1.1141373753
 C          9.5226279384       -3.3770581259       -1.0326817623
 C         10.0882191417       -2.1810821292       -0.6388362122
 C          9.2491278023       -1.1264594776       -0.3047908214
 C          9.4855649671        0.2263436227        0.1152707000
 C         10.6381496323        0.9598588164        0.3631406116
 C         10.5116454148        2.2667744707        0.7888673208
 C          9.2559218540        2.8362412018        0.9862662619
 C          8.0950227127        2.1260355228        0.7464047018
 C          8.2154003416        0.8214565069        0.2897189438
 C          5.0241686379       -0.7895053924        0.7230940384
 C          3.6639480615       -0.5685258309        0.7836766206
 C          1.1258736401        2.0788231741        0.5647670302
 N         -0.1669287622        2.3027811132        0.6455554472
 C         -3.3254094158        0.5016144627        0.1933585277
 C         -4.6709973764        0.7590025020        0.2871485879
 H         -5.7549939789       -2.2522862880       -4.9626107164
 H         -5.8116129098        0.1919435056       -4.7775182384
 H         -5.8451731062        1.2861008502       -2.5564934641
 H         -5.7306646101       -3.6681368228       -2.9392972093
 H         -5.7239650758       -4.6696989940       -0.5200023678
 H         -5.7327296290       -5.1001939339        1.9119154543
 H         -5.7818009200       -3.2414293401        3.5102229637
 H         -5.8234059278       -0.8971991851        2.7146215524
 H         -8.6666817760       -0.5747496250       -0.1732502815
 H        -10.3375577701        1.1280883696        0.4888882632
 H         -9.6227505814        3.3290824686        1.2986353711
 H         -7.2230290681        3.8885130657        1.4716027792
 H         -4.6087484352        3.9574209001        1.4493322018
 H         -2.1752932495        3.5044964811        1.2620623124
 H          1.0077054945       -1.2097447240       -0.1040735486
 H          3.5128478964        2.3567813630       -0.9013125363
 H          5.9297234656        1.9398103579       -1.0569774141
 H          6.2151312436       -2.6047679332       -0.8748062643
 H          7.7255029068       -4.4634003271       -1.4432819660
 H         10.1568491207       -4.2116032085       -1.2922780876
 H         11.1601918317       -2.0615863096       -0.5934004682
 H         11.6106359898        0.5110438724        0.2285914813
 H         11.3950493614        2.8564624373        0.9834678392
 H          9.1872173743        3.8551961766        1.3378309698
 H          7.1281229894        2.5721976359        0.9236663159
 H          5.4557806036       -1.6556945678        1.2012595782
 H          3.0310941388       -1.2699357156        1.3072741526
 H          1.7662777830        2.9360989582        0.7368968214
 H         -2.9496115250       -0.4488964191       -0.1515002836
  79
       -124.26650722
 C         -6.0155927980       -1.5914667319       -4.0797733247
 C         -6.0546798824       -0.2168236887       -3.9008757448
 C         -5.9887248741        0.3370546494       -2.6292898586
 C         -5.8828435194       -0.5119060955       -1.5498107877
 C         -5.8420331415       -1.9026666818       -1.7241205543
 C         -5.9088547358       -2.4479218687       -2.9955574787
 C         -5.7302139150       -2.5283885464       -0.4159205029
 C         -5.6543018088       -3.8600405755       -0.0428667339
 C         -5.5506834050       -4.1663198703        1.3044887578
 C         -5.5234320233       -3.1645662633        2.2629485528
 C         -5.6004909899       -1.8274253373        1.8966686602
 C         -5.7039237014       -1.5200708821        0.5581604372
 C         -5.8075584220       -0.1574252129       -0.0839787538
 C         -6.9982073746        0.6376396177        0.3943902874
 C         -8.3311430053        0.2936911643        0.3451939299
 C         -9.2635732165        1.1894724913        0.8511122567
 C         -8.8635618578        2.4022084134        1.3929560861
 C         -7.5240204454        2.7517159887        1.4437983230
 C         -6.5872946554        1.8627566466        0.9408573813
 C         -5.1394086993        1.9405517362        0.8599981536
 C         -4.2515387994        2.9271167277        1.2638730193
 C         -2.8986501096        2.7216850680        1.0753791886
 C         -2.4232775106        1.5468675987        0.4868437402
 C         -0.9874461121        1.3411306934        0.3281950108
 N         -0.1630548314        2.2868797647        0.7834958792
 C          1.1300291273        2.0711131401        0.6883816429
 C          1.6696479983        0.9107728370        0.1247071422
 C          3.1062926843        0.6527526769        0.0656353894
 C          4.0154159111        1.6866606638       -0.1568735951
 C          5.3731610587        1.4418678336       -0.1773265875
 C          5.8559145783        0.1502618624        0.0208219082
 N          7.2318786760       -0.1022026616        0.0225326383
 C          8.1380436084        0.3129391854       -0.9344844919
 C          7.9215403213        1.0070013901       -2.1161571545
 C          9.0151203663        1.2725139891       -2.9181239979
 C         10.2957254208        0.8532588525       -2.5650713905
 C         10.5135481766        0.1399290053       -1.4034917875
 C          9.4301714241       -0.1387530915       -0.5809405114
 C          9.2890153746       -0.8551710697        0.6558124923
 C         10.1890329746       -1.5021743584        1.4922534807
 C          9.7144996373       -2.0855033124        2.6498884637
 C          8.3644799642       -2.0145449719        2.9857943388
 C          7.4501081418       -1.3765185072        2.1696295959
 C          7.9166575358       -0.8116130543        0.9913406406
 C          4.9532511341       -0.8904641335        0.2281244263
 C          3.5974732132       -0.6393830891        0.2529166380
 C          0.7156282587        0.0092053875       -0.3580014078
 N         -0.5784607840        0.2120442431       -0.2532168757
 C         -3.3180109278        0.5554314549        0.0700433262
 C         -4.6618648233        0.7620584653        0.2624695517
 H         -6.0695544551       -1.9992815320       -5.0787952319
 H         -6.1379444828        0.4310842411       -4.7611722724
 H         -6.0203291642        1.4079135768       -2.4891680204
 H         -5.8785135561       -3.5176932256       -3.1401941871
 H         -5.6748474252       -4.6439931782       -0.7854523529
 H         -5.4909383434       -5.1998268175        1.6137439820
 H         -5.4425443125       -3.4275817753        3.3074412024
 H         -5.5797040608       -1.0463818921        2.6429384787
 H         -8.6422344754       -0.6507618994       -0.0771526930
 H        -10.3137358596        0.9386892289        0.8228045384
 H         -9.6079173812        3.0822040438        1.7810679808
 H         -7.2169042814        3.6965292264        1.8669674787
 H         -4.6104802366        3.8369050741        1.7217341001
 H         -2.1795785413        3.4644758890        1.3833971286
 H          1.7670558397        2.8456224190        1.0990654904
 H          3.6538557708        2.6907708310       -0.3222628602
 H          6.0696203926        2.2531291491       -0.3275863753
 H          6.9308368938        1.3204216430       -2.4093533176
 H          8.8727159002        1.8143343882       -3.8414991372
 H         11.1248575142        1.0834105610       -3.2173721218
 H         11.5029951430       -0.2001942839       -1.1373795856
 H         11.2381174101       -1.5404260490        1.2406374378
 H         10.3968497345       -2.5963621366        3.3127980344
 H          8.0246178806       -2.4650903232        3.9067373237
 H          6.4096469952       -1.3107392677        2.4501811007
 H          5.3225318393       -1.8965091381        0.3590817656
 H          2.9092321259       -1.4514967820        0.4347619834
 H          1.0090412517       -0.9042292519       -0.8619073273
 H         -2.9393200629       -0.3467078027       -0.3841617201
  79
       -124.26642977
 C         -5.7297490230       -3.0987681326       -3.1036709946
 C         -5.7145331852       -1.7701442747       -3.5003857316
 C         -5.7394547332       -0.7470246971       -2.5618148269
 C         -5.7780271957       -1.0834053498       -1.2267421716
 C         -5.7916135491       -2.4254255539       -0.8194022980
 C         -5.7682058106       -3.4405066666       -1.7612940144
 C         -5.8289934473       -2.4663186176        0.6339930275
 C         -5.8567479043       -3.5312277699        1.5193095547
 C         -5.8893355891       -3.2633152573        2.8784831715
 C         -5.8934861328       -1.9584708615        3.3477878813
 C         -5.8673464802       -0.8858561140        2.4664677673
 C         -5.8356413285       -1.1496183491        1.1151210276
 C         -5.8155267841       -0.1645627679       -0.0309348162
 C         -7.0057494120        0.7638607810       -0.0100852320
 C         -8.3432853988        0.4414762680       -0.0779603741
 C         -9.2740776550        1.4706043284       -0.0289127559
 C         -8.8681595108        2.7918643136        0.0887896334
 C         -7.5240499523        3.1198166414        0.1585145439
 C         -6.5889165912        2.0982585699        0.1080063823
 C         -5.1374410959        2.1255435870        0.1471384252
 C         -4.2449571077        3.1817344754        0.2576846526
 C         -2.8907142087        2.9098706444        0.2578118035
 C         -2.4187437663        1.6003479785        0.1378512389
 C         -0.9816502825        1.3460651259        0.1193500008
 N         -0.1638421737        2.3563258900        0.4215155590
 C          1.1300667823        2.1254092275        0.3982117680
 C          1.6736523200        0.8804713411        0.0702636940
 C          3.1129172576        0.6305966794        0.0415755888
 C          3.9417144188        1.1414105639        1.0394100229
 C          5.2989029961        0.8955435633        1.0229268913
 C          5.8650623757        0.1536280718       -0.0119321669
 N          7.2420252123       -0.0883697502       -0.0365716124
 C          8.2344372014        0.8550886255        0.1544742900
 C          8.1295613142        2.2250948906        0.3475248227
 C          9.2981489772        2.9488747705        0.4897482242
 C         10.5467959358        2.3344312321        0.4313478779
 C         10.6587823691        0.9766139875        0.2093603475
 C          9.4982193430        0.2283398118        0.0640938061
 C          9.2477744558       -1.1624970913       -0.1914902626
 C         10.0754344961       -2.2642775236       -0.3614247964
 C          9.4971104789       -3.4994825699       -0.5740919384
 C          8.1122412635       -3.6458992026       -0.5987269467
 C          7.2684854534       -2.5644451828       -0.4313877144
 C          7.8436931113       -1.3152223472       -0.2475512033
 C          5.0438988940       -0.3462025123       -1.0207521676
 C          3.6833456222       -0.1213935038       -0.9843449904
 C          0.7272457957       -0.1039525700       -0.2273451078
 N         -0.5680197865        0.1193799701       -0.2030062278
 C         -3.3172094523        0.5337105794        0.0316080080
 C         -4.6630627777        0.8070660504        0.0446843940
 H         -5.7105116997       -3.8776138053       -3.8522273185
 H         -5.6830788215       -1.5280285360       -4.5525446858
 H         -5.7279399359        0.2882881190       -2.8704491774
 H         -5.7790838366       -4.4767978868       -1.4572214264
 H         -5.8534869710       -4.5493563756        1.1592955001
 H         -5.9118741565       -4.0817292238        3.5834498093
 H         -5.9183009748       -1.7740700032        4.4117629381
 H         -5.8719197858        0.1311763905        2.8310253582
 H         -8.6591910926       -0.5876771762       -0.1680634916
 H        -10.3277310049        1.2394696271       -0.0827071219
 H         -9.6114636604        3.5749677665        0.1258516990
 H         -7.2122127082        4.1497334265        0.2494316560
 H         -4.6015062483        4.1976535308        0.3415963531
 H         -2.1681758073        3.7062949872        0.3434391806
 H          1.7663407758        2.9711498995        0.6314797760
 H          3.5106375260        1.7079593129        1.8517937902
 H          5.9271586864        1.2614267310        1.8209083366
 H          7.1689351500        2.7167580372        0.3737865004
 H          9.2413696964        4.0161725312        0.6462438287
 H         11.4364806344        2.9342464533        0.5520545341
 H         11.6262386509        0.5019091443        0.1452908780
 H         11.1483972264       -2.1523073813       -0.3227765447
 H         10.1223361618       -4.3688352477       -0.7131176003
 H          7.6873423849       -4.6275019913       -0.7486036172
 H          6.1970063013       -2.6952065864       -0.4309214244
 H          5.4819042628       -0.8963948937       -1.8397992255
 H          3.0563378258       -0.5046049931       -1.7759170910
 H          1.0288463323       -1.1143695213       -0.4774264200
 H         -2.9411103412       -0.4736454449       -0.0551967385
  79
       -124.26631875
 C         -5.8979311611       -1.9613445213       -3.8965767766
 C         -5.9006614615       -0.5754340054       -3.8487541022
 C         -5.8707075965        0.0940119314       -2.6326587351
 C         -5.8377681332       -0.6519983345       -1.4754018742
 C         -5.8330950343       -2.0532548964       -1.5166361124
 C         -5.8634940919       -2.7140568956       -2.7335970403
 C         -5.7946119710       -2.5541245512       -0.1516709576
 C         -5.7743726133       -3.8460917148        0.3467806164
 C         -5.7352245157       -4.0264044944        1.7201912313
 C         -5.7159555211       -2.9395249770        2.5811650680
 C         -5.7375991180       -1.6413312689        2.0887743256
 C         -5.7771953675       -1.4587619212        0.7241475003
 C         -5.8147214650       -0.1621659547       -0.0456197414
 C         -7.0049273941        0.7076502955        0.2798572062
 C         -8.3420059691        0.3799743557        0.2317199148
 C         -9.2731081739        1.3536449969        0.5676205035
 C         -8.8677843568        2.6273461719        0.9387094996
 C         -7.5240972244        2.9610258132        0.9864041915
 C         -6.5885646328        1.9935591046        0.6557599438
 C         -5.1371520337        2.0347373089        0.6256178520
 C         -4.2448025557        3.0591376200        0.9059162194
 C         -2.8903794937        2.8067670033        0.8049659636
 C         -2.4183574456        1.5432849751        0.4411068595
 C         -0.9811932340        1.2991495486        0.3663683327
 N         -0.5669412158        0.0348553826        0.2684760783
 C          0.7283830146       -0.1829917697        0.2134035886
 C          1.6740049017        0.8457027958        0.2479130620
 C          3.1133183411        0.6016886793        0.1889427653
 C          3.9405173556        1.4140549719       -0.5852109600
 C          5.2978110801        1.1775622574       -0.6533827971
 C          5.8664298182        0.1361771862        0.0775067700
 N          7.2435277532       -0.0987658306        0.0204689799
 C          7.8463961530       -1.3278079152       -0.1752587206
 C          7.2729323162       -2.5697497583       -0.4077141297
 C          8.1180551470       -3.6469116922       -0.5953374119
 C          9.5027837839       -3.4997915759       -0.5663731362
 C         10.0796001916       -2.2615539627       -0.3676019817
 C          9.2504272332       -1.1645275676       -0.1753895282
 C          9.4997167731        0.2342203577        0.0339301487
 C         10.6601108450        0.9890742216        0.1414281090
 C         10.5477878459        2.3456641580        0.3706614570
 C          9.2987411476        2.9454651317        0.5127616245
 C          8.1302588846        2.2147582309        0.4097676114
 C          8.2354529416        0.8561403264        0.1480319335
 C          5.0467568277       -0.6694181360        0.8657773072
 C          3.6861162628       -0.4467189198        0.9075201305
 C          1.1293157154        2.1290652259        0.3457012910
 N         -0.1645767554        2.3536919833        0.4062615621
 C         -3.3165861446        0.5107956986        0.1525925101
 C         -4.6625604669        0.7698953412        0.2396930232
 H         -5.9231533160       -2.4601163825       -4.8546387892
 H         -5.9263675832       -0.0096889231       -4.7685024084
 H         -5.8745907645        1.1737648156       -2.5942985585
 H         -5.8633470883       -3.7931640865       -2.7765633666
 H         -5.7891636305       -4.6956941729       -0.3197948394
 H         -5.7199361975       -5.0273035890        2.1267473890
 H         -5.6845271589       -3.1047603094        3.6480987424
 H         -5.7231927707       -0.7942019255        2.7591236952
 H         -8.6571780676       -0.6114810408       -0.0594638375
 H        -10.3264475767        1.1165545355        0.5388931415
 H         -9.6113209688        3.3683956078        1.1938494587
 H         -7.2129429862        3.9530780906        1.2782335727
 H         -4.6014284197        4.0356952518        1.1980312287
 H         -2.1681732276        3.5805833928        1.0133832475
 H          1.0302126844       -1.2196496426        0.1196377503
 H          3.5078641008        2.2151342620       -1.1664367557
 H          5.9240661176        1.7873598753       -1.2868792678
 H          6.2017422807       -2.6942656673       -0.4554672073
 H          7.6942028020       -4.6245394144       -0.7717122151
 H         10.1289877835       -4.3675202168       -0.7105109334
 H         11.1525544172       -2.1426885457       -0.3621414080
 H         11.6276148346        0.5188208547        0.0510042782
 H         11.4373595381        2.9520669340        0.4539880559
 H          9.2414744174        4.0057148639        0.7106951558
 H          7.1695856048        2.6887510795        0.5430797520
 H          5.4861744535       -1.4581398916        1.4575016991
 H          3.0605685771       -1.0723946951        1.5272400561
 H          1.7647635439        3.0055781861        0.3958205391
 H         -2.9403430370       -0.4594784208       -0.1316490735
  79
       -124.26607168
 C         -5.7720592991       -3.2110109606       -2.9881666664
 C         -5.7768323046       -1.8987888046       -3.4364227716
 C         -5.7902088466       -0.8400113497       -2.5380751256
 C         -5.7981891623       -1.1241887171       -1.1903894319
 C         -5.7925505906       -2.4494480502       -0.7310895821
 C         -5.7796147886       -3.5003322543       -1.6330104537
 C         -5.8036740809       -2.4342147508        0.7232479249
 C         -5.8039192307       -3.4639677879        1.6496403365
 C         -5.8166412404       -3.1435700298        2.9977732510
 C         -5.8284719738       -1.8214927766        3.4161175277
 C         -5.8288721251       -0.7838907495        2.4934738091
 C         -5.8166956407       -1.0999836371        1.1530382248
 C         -5.8197449469       -0.1599565396       -0.0308082956
 C         -7.0086681467        0.7698626818       -0.0257124715
 C         -8.3470909458        0.4470675044       -0.0698611986
 C         -9.2765268480        1.4782204782       -0.0425737801
 C         -8.8683118916        2.8019413741        0.0306729223
 C         -7.5232720667        3.1303550267        0.0769034980
 C         -6.5895289503        2.1067866875        0.0477739137
 C         -5.1376071947        2.1336507592        0.0715258505
 C         -4.2429065015        3.1908041290        0.1500470181
 C         -2.8888805720        2.9166548988        0.1509348020
 C         -2.4200393687        1.6042086708        0.0569446330
 C         -0.9833564250        1.3454783374        0.0429477862
 N         -0.1674628486        2.3323778488        0.4177326100
 C          1.1254666697        2.0940918768        0.4089231522
 C          1.6685084300        0.8676011245        0.0173407658
 C          3.1073250311        0.6114185697        0.0063161578
 C          3.9070306079        1.0209704718        1.0719209539
 C          5.2636880301        0.7717491696        1.0709738678
 C          5.8594224251        0.1340635319       -0.0155988894
 N          7.2378451774       -0.1002495802       -0.0269984570
 C          8.2172823784        0.8232212829        0.2894758351
 C          8.0965581277        2.1643788842        0.6243527516
 C          9.2550246982        2.8746930501        0.8753648960
 C         10.5097061631        2.2765097734        0.7864136681
 C         10.6383870198        0.9511301672        0.4226972837
 C          9.4881496974        0.2168597444        0.1663257933
 C          9.2562076695       -1.1397243509       -0.2439471116
 C         10.0980916359       -2.2110906289       -0.5109996417
 C          9.5366726104       -3.4196541295       -0.8711144071
 C          8.1541576964       -3.5713671733       -0.9463846778
 C          7.2965084432       -2.5199087073       -0.6843756811
 C          7.8552693850       -1.2939208598       -0.3525044473
 C          5.0666521895       -0.2653642813       -1.0898391585
 C          3.7052080463       -0.0429907637       -1.0692185165
 C          0.7244268332       -0.0902950892       -0.3615208809
 N         -0.5703822940        0.1379905756       -0.3451412607
 C         -3.3202569674        0.5370014806       -0.0212222609
 C         -4.6656824677        0.8125023240       -0.0021207086
 H         -5.7622067750       -4.0183045943       -3.7061364231
 H         -5.7699482510       -1.6977169790       -4.4976271237
 H         -5.7943793404        0.1824404538       -2.8869846776
 H         -5.7755509195       -4.5238862879       -1.2885362895
 H         -5.7945063543       -4.4953013651        1.3294467843
 H         -5.8173407781       -3.9340487424        3.7342712707
 H         -5.8379447094       -1.5959225923        4.4723757276
 H         -5.8386296612        0.2465287184        2.8182973051
 H         -8.6646592010       -0.5840100762       -0.1257388629
 H        -10.3308792825        1.2467288047       -0.0786812332
 H         -9.6105399614        3.5866495277        0.0513334152
 H         -7.2097666363        4.1621778250        0.1334436154
 H         -4.5973650651        4.2089909275        0.2118004309
 H         -2.1649256484        3.7137907464        0.2167906992
 H          1.7620485783        2.9187876472        0.7076823688
 H          3.4527378891        1.5095798545        1.9214919903
 H          5.8683689658        1.0545555177        1.9192917457
 H          7.1320368977        2.6463878230        0.6755008864
 H          9.1852867036        3.9185835455        1.1436807947
 H         11.3909165706        2.8645393107        0.9954111200
 H         11.6109292588        0.4909488299        0.3343772058
 H         11.1687503109       -2.0966538297       -0.4334900728
 H         10.1731411734       -4.2645135613       -1.0882022435
 H          7.7420817611       -4.5336369163       -1.2124544399
 H          6.2266209458       -2.6574924570       -0.7251893227
 H          5.5272653902       -0.7342095936       -1.9461793608
 H          3.0995526686       -0.3487836054       -1.9097935854
 H          1.0270289314       -1.0836887419       -0.6716028052
 H         -2.9463093270       -0.4727901718       -0.0869534632
