  89
       -139.07780500
 C          9.6006677579       -1.9892280924       -2.5909201300
 C          9.6418194470       -0.8678722999       -1.7754717087
 C          8.5028645235       -0.4301515477       -1.1364516907
 C          7.2819559354       -1.1039623874       -1.2925323758
 C          6.1124012742       -0.6016673741       -0.5975795720
 C          4.8869187429       -1.2426232082       -0.5753275333
 C          3.8329822488       -0.6582572652        0.1518327230
 C          2.5183657048       -1.2051532584        0.2545680284
 C          1.5408827492       -0.5080282909        1.0035822847
 C          0.2639002213       -0.9818969116        1.1329241673
 C         -0.1110404387       -2.1822470216        0.5147651582
 N         -1.4197126048       -2.6640305575        0.6343818364
 C         -1.7823065527       -3.9464079474        0.9956023059
 C         -0.9824011675       -5.0233527713        1.3506826928
 C         -1.6096685611       -6.2067277949        1.6946972883
 C         -2.9976300166       -6.3189237712        1.6967896406
 C         -3.8004303113       -5.2410198987        1.3698310955
 C         -3.1940718809       -4.0437103457        1.0213349638
 C         -3.6995133657       -2.7467860471        0.6600377889
 C         -4.9809201732       -2.2391302292        0.5151857302
 C         -5.1014291733       -0.9115407916        0.1348981373
 C         -3.9583030499       -0.1182697852       -0.1154712070
 C         -2.6809166930       -0.6026138882        0.0149875743
 C         -2.5599567137       -1.9287280437        0.4292372216
 C         -4.3635206858        1.2780561886       -0.5199356663
 C         -3.7776869256        2.3323102732        0.3894794273
 C         -3.9407258701        2.4719490053        1.7500345993
 C         -3.2830836764        3.5140555954        2.3902090559
 C         -2.4792432568        4.3907696218        1.6772263941
 C         -2.3142087511        4.2530900367        0.3081458993
 C         -2.9692726813        3.2176227807       -0.3376746907
 C         -2.9940965533        2.8211000788       -1.7369990517
 C         -2.3773007099        3.3641388317       -2.8518664887
 C         -2.5894389730        2.7665450466       -4.0840388781
 C         -3.4005658510        1.6481833220       -4.2035186424
 C         -4.0210598121        1.0972689213       -3.0900686685
 C         -3.8128466710        1.6898138709       -1.8643242686
 C         -5.8677258518        1.1919759463       -0.4748671329
 C         -6.7884183921        2.1770354404       -0.7534728878
 C         -8.1387555795        1.8692034918       -0.6481904105
 C         -8.5509938820        0.5987952117       -0.2711543138
 C         -7.6285937323       -0.3946625272        0.0103920980
 C         -6.2777475801       -0.0959289904       -0.0920164525
 C          0.8409056242       -2.8882517252       -0.2290591562
 C          2.1213221214       -2.4138367498       -0.3574430407
 N          4.0767884728        0.5223057518        0.7902505509
 C          5.2477093220        1.1046317148        0.7429301123
 C          5.4483538168        2.3728558172        1.4435405883
 C          6.6853465629        3.0110271902        1.3968883047
 C          6.8749892698        4.2083713643        2.0590179350
 C          5.8339166408        4.7800637003        2.7733401355
 C          4.5996195164        4.1510028115        2.8221167401
 C          4.4053810486        2.9538821686        2.1612450978
 N          6.2585886984        0.5702723103        0.0828860767
 C          7.2558489904       -2.2324064224       -2.1217991368
 C          8.4005463289       -2.6642045364       -2.7584846191
 H         10.4926746433       -2.3329916450       -3.0929649250
 H         10.5714881280       -0.3335819816       -1.6403891762
 H          8.5288150853        0.4403414972       -0.4989693026
 H          4.7389399282       -2.1731594862       -1.0947943565
 H          1.8359058676        0.4108658610        1.4859586435
 H         -0.4579822296       -0.4499462028        1.7358339447
 H          0.0929963670       -4.9374025339        1.3707094625
 H         -1.0102231009       -7.0609671104        1.9717416164
 H         -3.4505626973       -7.2604875570        1.9688345081
 H         -4.8764178260       -5.3255196062        1.3898054428
 H         -5.8483751211       -2.8564971428        0.6905019837
 H         -1.8185426136        0.0085542766       -0.2020927877
 H         -4.5652686463        1.7866027466        2.3048036689
 H         -3.3972549602        3.6415623151        3.4566812626
 H         -1.9743663315        5.1917908463        2.1974392089
 H         -1.6864265808        4.9380918002       -0.2420828309
 H         -1.7444395579        4.2346673018       -2.7639602931
 H         -2.1165604658        3.1768345423       -4.9644349918
 H         -3.5512076339        1.1994279253       -5.1743105376
 H         -4.6525201429        0.2254289578       -3.1823826591
 H         -6.4667986349        3.1655611479       -1.0473511301
 H         -8.8769894297        2.6276865934       -0.8627057380
 H         -9.6069714548        0.3833182307       -0.1968950560
 H         -7.9546750648       -1.3815639006        0.3032561341
 H          0.5478036020       -3.7999768460       -0.7293644405
 H          2.8239118003       -2.9802696506       -0.9478880220
 H          7.4856131753        2.5532287609        0.8354186682
 H          7.8364218859        4.6995724387        2.0211469465
 H          5.9841558641        5.7159051798        3.2915075027
 H          3.7880853992        4.5983257320        3.3778818752
 H          3.4502345791        2.4521716372        2.1897330791
 H          6.3361780696       -2.7744225253       -2.2806099739
 H          8.3589560283       -3.5357603377       -3.3966579649
