  71
  -110.409445470000        1.00000000000000      !
 C         -4.6084188558       -2.6719224549        0.9941410181
 C         -3.5977014771       -3.5869144082        0.7522696246
 C         -2.3382302402       -3.1441984841        0.3551005278
 C         -1.1809410665       -4.0304246449        0.1505949365
 C         -1.2316849605       -5.4259183780        0.1491184023
 C         -0.0426629887       -6.1236246713        0.0145174573
 C          1.1524541640       -5.4386716568       -0.1319074164
 C          1.1139323364       -4.0431231701       -0.1567244389
 C          2.2804597176       -3.1709188038       -0.3690266649
 C          3.5330612485       -3.6317982606       -0.7673526194
 C          4.5571726238       -2.7321427503       -1.0099825065
 C          4.3504565544       -1.3685106693       -0.9001357738
 C          3.1010599937       -0.8950489677       -0.5043168690
 N          2.8279342290        0.4767306046       -0.4400657396
 C          3.6121887353        1.4463835431        0.1481531867
 C          4.7692172704        1.3089489058        0.9016323746
 C          5.3464720600        2.4553249201        1.4136699651
 C          4.7873437958        3.7119881864        1.1920958440
 C          3.6245018680        3.8525391110        0.4606603611
 C          3.0255178310        2.7154461834       -0.0641063784
 C          1.8292205050        2.4900205866       -0.8248497578
 C          0.8575246436        3.3340805207       -1.3451300737
 C         -0.1957587146        2.7811664707       -2.0437523075
 C         -0.2757477683        1.4052147872       -2.2419756277
 C          0.6876280725        0.5466252079       -1.7487847892
 C          1.7357629635        1.0943389881       -1.0228260761
 C          2.0928650902       -1.7996094007       -0.2115393073
 N         -0.0306158423       -3.3905198497       -0.0084402626
 C         -2.1316965468       -1.7759705357        0.1953091877
 C         -3.1245094093       -0.8558816429        0.4925783603
 N         -2.8261176886        0.5105341993        0.4355810410
 C         -3.5984736266        1.5022710252       -0.1319207244
 C         -4.7715922491        1.3983091724       -0.8657565788
 C         -5.3326631424        2.5622862036       -1.3555910126
 C         -4.7421251793        3.8041555993       -1.1324341710
 C         -3.5626490990        3.9114607030       -0.4226013751
 C         -2.9798474683        2.7561925021        0.0800048036
 C         -1.7759213664        2.4983055435        0.8182734843
 C         -0.7784246817        3.3175023919        1.3295285716
 C          0.2730299479        2.7371926738        2.0084734225
 C          0.3252414927        1.3586383366        2.1968750779
 C         -0.6645958135        0.5247886652        1.7134951571
 C         -1.7107300257        1.0995921741        1.0053754903
 C         -4.3807240323       -1.3112643898        0.8884083138
 H         -5.5832025858       -3.0236387831        1.2990740569
 H         -3.7951195362       -4.6386175210        0.8892070382
 H         -2.1654796584       -5.9552618094        0.2484306499
 H         -0.0472375158       -7.2045134557        0.0240361972
 H          2.0818450330       -5.9777526959       -0.2200269939
 H          3.7144812252       -4.6863653908       -0.9045507624
 H          5.5258884582       -3.0980789937       -1.3174972799
 H          5.1404750181       -0.6729761407       -1.1395435257
 H          5.1992326733        0.3377916830        1.0957191703
 H          6.2484642425        2.3752294261        2.0027909806
 H          5.2695547981        4.5840627787        1.6085725021
 H          3.1823661203        4.8248485616        0.3036246290
 H          0.9300142621        4.4016402745       -1.2033613196
 H         -0.9709021715        3.4169829578       -2.4444172344
 H         -1.1091827583        1.0010073006       -2.7979603345
 H          0.6278470658       -0.5145354582       -1.9367878181
 H          1.1401280491       -1.4422376239        0.1403851466
 H         -1.1747773457       -1.4339350977       -0.1601702869
 H         -5.2264520525        0.4393155390       -1.0628202874
 H         -6.2476424669        2.5078344355       -1.9274635761
 H         -5.2128748967        4.6907811729       -1.5304813677
 H         -3.0959569000        4.8720126167       -0.2637977512
 H         -0.8300151855        4.3873046533        1.1958396387
 H          1.0683132871        3.3529738756        2.4009642473
 H          1.1580495705        0.9323131764        2.7371867090
 H         -0.6257228264       -0.5381376643        1.8966106025
 H         -5.1595173511       -0.6048311499        1.1321156998
