  66
  -109.660372059300       0.305501668318804      !
 C         -7.3004402515        0.0059414683        0.0536560932
 C         -6.2544453925        1.1223512667        0.2246763146
 C         -6.9490637819        2.4630201423        0.5251859348
 C         -5.4744174748        1.2608769861       -1.0685607682
 C         -6.1472626130        1.5638120819       -2.2444842007
 C         -5.4913954934        1.6864392812       -3.4551687137
 C         -4.1229563837        1.4935914520       -3.5063089439
 C         -3.4291813123        1.1926400486       -2.3530867258
 C         -4.0886283425        1.0855738737       -1.1257124414
 N         -3.3635148793        0.7756910896        0.0162639428
 C         -1.9573384262        0.6301440664       -0.0763281110
 C         -1.1402172533        1.7604383550       -0.1456026911
 C          0.2239113425        1.6035227916       -0.1773919148
 C          0.7996246372        0.3285688210       -0.1643657878
 C         -0.0163123582       -0.8212278543       -0.1461780067
 C         -1.3991007750       -0.6367392376       -0.0839828524
 C          0.5917795991       -2.1445523635       -0.1933748880
 C         -0.1698818135       -3.3115400875       -0.2755138718
 C          0.4365250860       -4.5595829040       -0.3235514876
 C         -0.3679513296       -5.7202552440       -0.4138872848
 N         -1.0225018197       -6.6580542324       -0.4886993412
 C          1.8311660912       -4.6799651684       -0.2888601796
 C          2.5938763737       -3.5412995731       -0.2146998208
 C          1.9955854561       -2.2769985050       -0.1715779700
 C          2.8345760149       -1.1012302468       -0.1117423999
 N          4.1413406472       -1.2531973740       -0.0406626083
 C          4.9028029826       -0.1507285706        0.0065315804
 C          6.3027533351       -0.2752400880        0.1043265730
 C          7.0871847144        0.8515686826        0.1548618472
 C          8.4942900061        0.7365861913        0.2618666725
 N          9.6316730731        0.6297238791        0.3489328504
 C          6.4944078051        2.1496822007        0.1022927483
 C          7.3277268734        3.2932853310        0.1536008968
 N          7.9896090748        4.2262367403        0.2091131972
 C          5.1314700096        2.2911179378        0.0048220914
 C          4.3089673000        1.1472810365       -0.0395135278
 N          2.9787384431        1.2906118693       -0.1119873186
 C          2.2371264329        0.2001107397       -0.1372277221
 C         -3.9723528933        0.6203780547        1.2542170856
 C         -3.1923489994        0.3377002770        2.3790528969
 C         -3.7697115361        0.1791715333        3.6211208859
 C         -5.1388410852        0.3085178379        3.7646956823
 C         -5.9095182623        0.6075442405        2.6566992579
 C         -5.3552335300        0.7712851332        1.3945872535
 H         -6.8028893861       -0.9393594712       -0.1548565833
 H         -7.8936164458       -0.1109628041        0.9561432446
 H         -7.9746385640        0.2268298771       -0.7689477911
 H         -6.2041905075        3.2475972735        0.6450004029
 H         -7.5323729414        2.4021869907        1.4395452277
 H         -7.6153645994        2.7439014927       -0.2856239606
 H         -7.2168674325        1.7065735770       -2.2216593684
 H         -6.0460745734        1.9221187818       -4.3502738625
 H         -3.5927158735        1.5717744133       -4.4434338654
 H         -2.3625474201        1.0331057336       -2.4023326977
 H         -1.5902491634        2.7413605296       -0.1521228082
 H          0.8843511094        2.4557488148       -0.1960914513
 H         -2.0724780140       -1.4779173327       -0.0397865761
 H         -1.2466095081       -3.2695427108       -0.3127431758
 H          2.2868638456       -5.6577232790       -0.3224645967
 H          3.6707407284       -3.5914265197       -0.1870950558
 H          6.7378472313       -1.2621272177        0.1434648621
 H          4.6711570669        3.2664018055       -0.0324450493
 H         -2.1212593695        0.2485892667        2.2800658514
 H         -3.1464718658       -0.0408162971        4.4749049759
 H         -5.6029679602        0.1867546554        4.7310232469
 H         -6.9752488577        0.7183590390        2.7858410099
  66
  -109.660269220200       0.274000911879424      !
 C         -7.2974816687        0.1104974823       -0.4681967761
 C         -6.2661311045        1.1264165517        0.0560554732
 C         -6.9782318340        2.3732201058        0.6119806539
 C         -5.3758013692        1.5450295693       -1.0967945413
 C         -5.9475042974        2.1347112908       -2.2168273996
 C         -5.1986967275        2.4948404608       -3.3208007766
 C         -3.8401476573        2.2360452259       -3.3271495196
 C         -3.2468963273        1.6551330585       -2.2264266055
 C         -3.9939850475        1.3329230820       -1.0893121804
 N         -3.3639002466        0.7628655019        0.0131218524
 C         -1.9604427693        0.6197569632        0.0008415209
 C         -1.1394304893        1.7516862308       -0.0179507809
 C          0.2240747953        1.5976316951       -0.0277262913
 C          0.8043580120        0.3240005383       -0.0157206422
 C         -0.0105561093       -0.8270588182        0.0088590362
 C         -1.3942781314       -0.6458446243        0.0105987926
 C          0.6017296596       -2.1496322187        0.0285079772
 C         -0.1555408998       -3.3221546986        0.0661826421
 C          0.4551508653       -4.5689266558        0.0865201593
 C         -0.3459466574       -5.7349090277        0.1233834208
 N         -1.0002671468       -6.6749956809        0.1547024484
 C          1.8506311335       -4.6831012768        0.0711393863
 C          2.6090691064       -3.5396531312        0.0383183442
 C          2.0063681650       -2.2768396728        0.0177816100
 C          2.8433817231       -1.0982211559       -0.0113844238
 N          4.1523277895       -1.2463357809       -0.0204902454
 C          4.9117811476       -0.1411962582       -0.0482684251
 C          6.3151001246       -0.2611667460       -0.0555711830
 C          7.0979309051        0.8680027811       -0.0878818311
 C          8.5091181513        0.7571992400       -0.0942965263
 N          9.6496970577        0.6525199727       -0.0976855991
 C          6.4984731858        2.1636726730       -0.1151080933
 C          7.3289230556        3.3099068404       -0.1507757461
 N          7.9882431994        4.2459434933       -0.1792561995
 C          5.1315428385        2.3005894497       -0.1072418915
 C          4.3115421754        1.1545753430       -0.0722752021
 N          2.9793299310        1.2942473507       -0.0621455854
 C          2.2405557154        0.2007450747       -0.0291333633
 C         -4.0825040955        0.3531645046        1.1328045261
 C         -3.4091233933       -0.1577630948        2.2467038150
 C         -4.0978910791       -0.5874097370        3.3612206657
 C         -5.4776860170       -0.5016764114        3.3935142556
 C         -6.1429901098        0.0451373858        2.3130526767
 C         -5.4738501832        0.4866395667        1.1789001956
 H         -7.9674840214       -0.2074480246        0.3254869603
 H         -7.8967709984        0.5407596694       -1.2654652532
 H         -6.7868094684       -0.7677238372       -0.8589205958
 H         -6.2430502548        3.0856248350        0.9818655195
 H         -7.6411770101        2.1092771054        1.4310575625
 H         -7.5683160755        2.8590624529       -0.1600069059
 H         -7.0109281458        2.3179493214       -2.2339149186
 H         -5.6741940823        2.9566343327       -4.1722433306
 H         -3.2387856842        2.4803174985       -4.1898224819
 H         -2.1898914154        1.4399784445       -2.2538879133
 H         -1.5886350422        2.7331530776       -0.0212877371
 H          0.8822563098        2.4517347522       -0.0363658429
 H         -2.0649358325       -1.4902439035        0.0170420062
 H         -1.2332148359       -3.2871517252        0.0821652531
 H          2.3100117345       -5.6596348648        0.0866221457
 H          3.6865344441       -3.5843952362        0.0282112764
 H          6.7553530350       -1.2463453211       -0.0353327298
 H          4.6664195568        3.2742497408       -0.1265870164
 H         -2.3313025202       -0.2085887473        2.2475412692
 H         -3.5524641010       -0.9831307563        4.2047239916
 H         -6.0295222099       -0.8405212806        4.2565692028
 H         -7.2175600826        0.1326716537        2.3609995679
  66
  -109.660066834000       0.221177910289785      !
 C         -7.2852610060       -0.0402879004        0.0626730179
 C         -6.2636471334        1.1093109979        0.1315731731
 C         -6.9902431527        2.4652983165        0.1921832447
 C         -5.4077029834        1.0739847494       -1.1204491946
 C         -6.0077937374        1.2143137816       -2.3642978276
 C         -5.2771126736        1.2022153205       -3.5380394427
 C         -3.9036794453        1.0522339305       -3.4790435590
 C         -3.2810181333        0.9109005382       -2.2565934652
 C         -4.0197534605        0.9125843919       -1.0703504898
 N         -3.3654757130        0.7707628094        0.1447376966
 C         -1.9551331281        0.6195827465        0.1503039789
 C         -1.1349657931        1.7307447231        0.3532298833
 C          0.2294045723        1.5727020350        0.3279295122
 C          0.8009560403        0.3135528630        0.1173153375
 C         -0.0167735211       -0.8210693742       -0.0603837899
 C         -1.4009531968       -0.6323798763       -0.0505150427
 C          0.5900768615       -2.1335320468       -0.2420310716
 C         -0.1728923508       -3.2957985748       -0.3701627136
 C          0.4318714969       -4.5344198919       -0.5364072111
 C         -0.3745672596       -5.6910434255       -0.6590456447
 N         -1.0266133879       -6.6285752833       -0.7548697392
 C          1.8266646112       -4.6499778688       -0.5820632041
 C          2.5907331311       -3.5168582204       -0.4548479547
 C          1.9939748156       -2.2627262314       -0.2828331143
 C          2.8352177684       -1.0955695584       -0.1422970023
 N          4.1434075470       -1.2400532211       -0.2081315883
 C          4.9063309380       -0.1460876267       -0.0744241155
 C          6.3088198433       -0.2615314912       -0.1482891940
 C          7.0943641657        0.8578233614       -0.0165640827
 C          8.5043349646        0.7523999117       -0.0921284848
 N          9.6434236011        0.6532031245       -0.1566199827
 C          6.5004064663        2.1391130465        0.1965510018
 C          7.3353989496        3.2757204915        0.3235126844
 N          8.0010334271        4.2020657635        0.4263237750
 C          5.1353484715        2.2710767038        0.2744681472
 C          4.3121873349        1.1348240175        0.1399678013
 N          2.9809680680        1.2699914514        0.2090669233
 C          2.2388416761        0.1890301107        0.0690120756
 C         -4.0452514430        0.7891253628        1.3536985437
 C         -3.3350928329        0.6269878872        2.5462165116
 C         -3.9838906484        0.6339698131        3.7632041444
 C         -5.3562093468        0.7984561496        3.8098616998
 C         -6.0607361009        0.9497407810        2.6297791221
 C         -5.4338682520        0.9474566180        1.3912318522
 H         -7.9300613567       -0.0404160678        0.9369933909
 H         -7.9109355306        0.0496196803       -0.8209312509
 H         -6.7655783874       -0.9957316749        0.0194009885
 H         -6.2624008057        3.2735570926        0.2340588584
 H         -7.6221930990        2.5273985475        1.0736968036
 H         -7.6144753845        2.6115448383       -0.6848524355
 H         -7.0781497071        1.3392102770       -2.4256142786
 H         -5.7763704887        1.3138947910       -4.4881806205
 H         -3.3128132387        1.0477961633       -4.3827504817
 H         -2.2073700069        0.8031938845       -2.2179099173
 H         -1.5831086322        2.6986575284        0.5174833080
 H          0.8924731330        2.4122888787        0.4631453388
 H         -2.0782348602       -1.4576833021       -0.2014053152
 H         -1.2500540181       -3.2590062914       -0.3376208801
 H          2.2812590473       -5.6199241603       -0.7139281467
 H          3.6677792213       -3.5637249097       -0.4824160880
 H          6.7449740762       -1.2353377207       -0.3104008634
 H          4.6739017926        3.2334778730        0.4344588026
 H         -2.2643659777        0.4908609212        2.5161732606
 H         -3.4153770131        0.5062758593        4.6721634362
 H         -5.8760328723        0.8041781262        4.7555071813
 H         -7.1319537139        1.0718855070        2.6817920934
  66
  -109.659802582100       0.167224530625511      !
 C         -7.2001237824       -0.0578951264        0.9077280826
 C         -6.2598551327        1.0432955279        0.3839219131
 C         -7.0668515185        2.2952037076       -0.0061172660
 C         -5.5436051030        0.5347023777       -0.8507774653
 C         -6.2911531432        0.1612759664       -1.9604174762
 C         -5.7014805933       -0.2526044703       -3.1391635910
 C         -4.3218005778       -0.2608722956       -3.2340203753
 C         -3.5566369680        0.1013941048       -2.1457840867
 C         -4.1494087951        0.4634658174       -0.9319000778
 N         -3.3514689656        0.7918989650        0.1619906344
 C         -1.9524762053        0.6562371899        0.0634841305
 C         -1.1223705334        1.7736437110        0.2055123008
 C          0.2398637540        1.6176939295        0.1493623107
 C          0.8115663696        0.3596985990       -0.0732541503
 C         -0.0135765822       -0.7666047197       -0.2737089529
 C         -1.3937990377       -0.5910765787       -0.1746211536
 C          0.5861843681       -2.0606718369       -0.5722064029
 C         -0.1822293324       -3.1811362910       -0.8937602277
 C          0.4165080945       -4.3995494624       -1.1847671178
 C         -0.3938766723       -5.5113291613       -1.5159402019
 N         -1.0479178326       -6.4128200455       -1.7848355922
 C          1.8099395541       -4.5365574059       -1.1600717507
 C          2.5792567104       -3.4409060115       -0.8570262983
 C          1.9889657585       -2.2049278717       -0.5705591655
 C          2.8356639493       -1.0674183782       -0.2875450456
 N          4.1407941418       -1.2394544519       -0.2447002634
 C          4.9098891201       -0.1693879406        0.0060549746
 C          6.3086485980       -0.3185398514        0.0744697222
 C          7.1013990844        0.7743252573        0.3319310300
 C          8.5077403336        0.6332395813        0.4085832756
 N          9.6443360365        0.5053652301        0.4667630638
 C          6.5168176971        2.0623176687        0.5270078664
 C          7.3570507980        3.1708839569        0.7910979397
 N          8.0251283432        4.0759585541        1.0062196011
 C          5.1544231202        2.2273785234        0.4631918054
 C          4.3240590255        1.1176939721        0.2062349930
 N          2.9950801991        1.2812448039        0.1650314357
 C          2.2458684712        0.2197167457       -0.0691230420
 C         -3.9076640975        1.2385503879        1.3591673349
 C         -3.0860443789        1.4781202680        2.4650624513
 C         -3.6060247627        1.9488611643        3.6520657866
 C         -4.9653299430        2.1753647438        3.7669535885
 C         -5.7872794181        1.8852534352        2.6952071668
 C         -5.2896257816        1.4064526853        1.4899393161
 H         -7.7493559230        0.2833270284        1.7805864509
 H         -7.9188858249       -0.3494590792        0.1472394326
 H         -6.6218051382       -0.9362249483        1.1885814245
 H         -6.3960526324        3.0666785610       -0.3798001108
 H         -7.6042144751        2.6931976501        0.8499178559
 H         -7.7898320491        2.0645580113       -0.7833832774
 H         -7.3685131398        0.1963915552       -1.9084091755
 H         -6.3122614637       -0.5453810780       -3.9790246311
 H         -3.8364724945       -0.5444625608       -4.1557395306
 H         -2.4822700634        0.1149995935       -2.2454163509
 H         -1.5634332528        2.7457204573        0.3655946268
 H          0.9031216736        2.4590656098        0.2718051464
 H         -2.0659850294       -1.4290908325       -0.2691878436
 H         -1.2583296873       -3.1224498849       -0.9360075214
 H          2.2597006783       -5.4914674640       -1.3853545783
 H          3.6558043067       -3.5023905646       -0.8383721501
 H          6.7377045023       -1.2973578532       -0.0760697894
 H          4.7003892063        3.1952467992        0.6109120827
 H         -2.0267733081        1.2844157895        2.4016275008
 H         -2.9461529234        2.1329391317        4.4864142388
 H         -5.3841504221        2.5543465678        4.6863092825
 H         -6.8503221059        2.0338398665        2.8067539213
  66
  -109.657741122800       1.887638758693932E-002 !
 C         -7.5450737599        1.7427384229        0.1738959779
 C         -6.0204429599        1.7027365618        0.2808199509
 C         -5.5454483763        3.0289219129        0.9155939155
 C         -5.3452823447        1.5823713661       -1.0692543709
 C         -5.9574215225        1.9292509744       -2.2632667599
 C         -5.2663462046        1.9100518907       -3.4626733004
 C         -3.9365872304        1.5324474051       -3.4817670346
 C         -3.3132055287        1.1534574939       -2.3101676392
 C         -4.0060370296        1.1761644215       -1.1001567992
 N         -3.3851855811        0.7306398476        0.0669742611
 C         -1.9852975796        0.5678019991        0.0474648838
 C         -1.1791258955        1.7099074242        0.0138093566
 C          0.1862230575        1.5763165939       -0.0057886203
 C          0.7840095118        0.3108870324        0.0055736900
 C         -0.0151775214       -0.8508966661        0.0217217952
 C         -1.4018137816       -0.6902178862        0.0315076888
 C          0.6141912323       -2.1656364237        0.0180161437
 C         -0.1273525855       -3.3481886671        0.0557308928
 C          0.4993602761       -4.5870621501        0.0494354543
 C         -0.2867572269       -5.7630742036        0.0898323595
 N         -0.9228680001       -6.7157117727        0.1226505414
 C          1.8956334834       -4.6830949878        0.0057381944
 C          2.6389252861       -3.5296092893       -0.0237148736
 C          2.0200169261       -2.2745260932       -0.0152342827
 C          2.8412771242       -1.0846947739       -0.0324973562
 N          4.1518066646       -1.2155216000       -0.0601119321
 C          4.8968042575       -0.1004045531       -0.0678440247
 C          6.3014252170       -0.2020344306       -0.0945454284
 C          7.0695477528        0.9375312338       -0.0994329290
 C          8.4818527678        0.8452699726       -0.1246669379
 N          9.6233855176        0.7556727356       -0.1454594875
 C          6.4536252478        2.2256488847       -0.0781883751
 C          7.2693669845        3.3829459493       -0.0822528296
 N          7.9169044470        4.3275896688       -0.0843430516
 C          5.0852631879        2.3446743630       -0.0536556481
 C          4.2800810365        1.1876594933       -0.0480984172
 N          2.9463165895        1.3097634063       -0.0249007357
 C          2.2217647316        0.2065385035       -0.0157020015
 C         -4.1646468430        0.2290423508        1.1088831538
 C         -3.6210296199       -0.5901651160        2.0972024634
 C         -4.4240426096       -1.1397441739        3.0770104991
 C         -5.7814183579       -0.8820135068        3.0813332229
 C         -6.3117295192       -0.0079430684        2.1477599284
 C         -5.5214247826        0.5836589135        1.1756179603
 H         -7.9903381813        1.8796132727        1.1554015718
 H         -7.8585569113        2.5871508502       -0.4337086120
 H         -7.9284878984        0.8254075281       -0.2670474965
 H         -4.4628797312        3.0422946409        1.0181631505
 H         -5.9848228423        3.1485393091        1.9036411838
 H         -5.8439492310        3.8689874803        0.2919126257
 H         -6.9911401307        2.2330000994       -2.2727067224
 H         -5.7660329949        2.1950161470       -4.3758008859
 H         -3.3846215605        1.5167143673       -4.4094672274
 H         -2.2838811052        0.8282280334       -2.3344679885
 H         -1.6427836156        2.6845997303        0.0016126939
 H          0.8321745769        2.4395018646       -0.0241656883
 H         -2.0564843109       -1.5461981600       -0.0017570221
 H         -1.2049702561       -3.3281038553        0.0935153708
 H          2.3675050068       -5.6537391785       -0.0009499533
 H          3.7165571014       -3.5602862130       -0.0521769463
 H          6.7541330978       -1.1816494739       -0.1094759638
 H          4.6077489951        3.3123815044       -0.0374064120
 H         -2.5610479546       -0.7900507818        2.1161578481
 H         -3.9839734816       -1.7744365511        3.8314274673
 H         -6.4214267915       -1.3285965002        3.8265258524
 H         -7.3632226317        0.2204760361        2.2013036796
  66
  -109.657404429100       1.321859129953642E-002 !
 C         -5.8373691910       -0.9568061897       -1.0425450257
 C         -6.1058545483        0.3787181393       -0.3129517942
 C         -7.6189279307        0.5789214054       -0.2251192253
 C         -5.4115969541        1.4637176510       -1.1148656100
 C         -6.0748530614        2.2493144795       -2.0436405083
 C         -5.3889734302        3.0846713750       -2.9087403230
 C         -4.0076803905        3.1029915103       -2.8828554202
 C         -3.3250546272        2.3572204474       -1.9421356882
 C         -4.0156925460        1.5788999542       -1.0148199636
 N         -3.3519199678        0.8837028589       -0.0036853486
 C         -1.9500663635        0.7590483831        0.0214959751
 C         -1.1003233400        1.8695513556        0.0650631119
 C          0.2596338337        1.6793362490        0.0678930349
 C          0.8094750783        0.3929798546        0.0498026965
 C         -0.0347918737       -0.7372482446        0.0636123882
 C         -1.4115204115       -0.5199981607        0.0406472603
 C          0.5431503564       -2.0746448305        0.0978939969
 C         -0.2440784072       -3.2258405177        0.1619349453
 C          0.3338782620       -4.4876740418        0.1995244549
 C         -0.4986032060       -5.6300968179        0.2648668522
 N         -1.1745582832       -6.5540394781        0.3157928234
 C          1.7257617337       -4.6385316707        0.1747472749
 C          2.5135144939       -3.5159839574        0.1166974632
 C          1.9437292927       -2.2383324140        0.0798993164
 C          2.8102595979       -1.0818985279        0.0275047268
 N          4.1139668052       -1.2646896654       -0.0143721718
 C          4.9016637806       -0.1800021591       -0.0612815872
 C          6.3001156670       -0.3378468225       -0.1147277245
 C          7.1119955634        0.7698965228       -0.1669628849
 C          8.5184279024        0.6207692906       -0.2245737843
 N          9.6547094205        0.4845584432       -0.2709147848
 C          6.5473769666        2.0813313951       -0.1652702477
 C          7.4071074055        3.2049056249       -0.2209661529
 N          8.0906712676        4.1226766321       -0.2664404119
 C          5.1855913996        2.2550168938       -0.1119600892
 C          4.3360482535        1.1313945194       -0.0606241935
 N          3.0085142961        1.3065632214       -0.0184706879
 C          2.2415534681        0.2328755151        0.0231999722
 C         -4.0645546861        0.4696231633        1.1227647550
 C         -3.4049478888        0.3017796094        2.3401696561
 C         -4.1067778301       -0.0522291573        3.4745193155
 C         -5.4787151358       -0.2128580809        3.4128202659
 C         -6.1371090066       -0.0368825986        2.2079552849
 C         -5.4505647580        0.2896025011        1.0489453030
 H         -6.2766945548       -1.7817926547       -0.4855668607
 H         -6.2728272904       -0.9318970434       -2.0391835933
 H         -4.7691926695       -1.1361920663       -1.1413012573
 H         -7.8595842330        1.5105195358        0.2820514856
 H         -8.0778392644       -0.2468636020        0.3116210819
 H         -8.0577957112        0.5902498275       -1.2189464986
 H         -7.1488264683        2.2070271844       -2.1177505407
 H         -5.9319608281        3.6868328479       -3.6208095219
 H         -3.4540587694        3.7027611957       -3.5895003853
 H         -2.2469419786        2.3723927211       -1.9451475805
 H         -1.5168985752        2.8632806417        0.1243753058
 H          0.9382691430        2.5170896636        0.0968776468
 H         -2.1031232275       -1.3475572294        0.0361830174
 H         -1.3202025678       -3.1617991885        0.1895976063
 H          2.1597466617       -5.6263173943        0.2040445917
 H          3.5893518744       -3.5891623060        0.0998571771
 H          6.7136487550       -1.3347415374       -0.1150692091
 H          4.7469225490        3.2410705363       -0.1106268207
 H         -2.3385070539        0.4605768212        2.3996485546
 H         -3.5808738733       -0.1864228582        4.4077413365
 H         -6.0374443720       -0.4778436683        4.2972497321
 H         -7.2059609495       -0.1705103471        2.1837338039
