42
 energy: -65.291862698319 gnorm: 0.000125002830 xtb: 6.7.1 (edcfbbe)
N            3.32500430552407        3.02703172887109        0.09515296959370
C            3.15286417228417        1.89091869836067        0.04510585415821
C            2.82805925497634        0.51902521171843       -0.00355400967864
C            3.74211582279441       -0.47999855072856        0.00042021214387
C            5.18588641373886       -0.40392992149142       -0.00943392224826
C            5.90170667156178        0.74200101549079       -0.37007500694669
C            7.28308455610694        0.74039434590301       -0.35724982946644
C            7.98081550070305       -0.39890669146026        0.01323733316497
C            7.28617092456553       -1.54731636486682        0.36144765805156
C            5.90619920735583       -1.55314084794183        0.34290974343434
C            1.37940378951011        0.25055135470170       -0.00583082762446
C            0.50200995514405        1.10019077802084        0.66964797323508
C           -0.85429912969532        0.85001200494252        0.68241369039689
C           -1.38050745734426       -0.25244544293882        0.00877896928352
C           -2.82908728336121       -0.52119383220205        0.00651161008682
C           -3.15376851916079       -1.89306655590884       -0.04422947217673
N           -3.32606058775626       -3.02907003407678       -0.09624872708383
C           -3.74358357987873        0.47743735950263        0.00422285481565
C           -5.18732612466516        0.40046777523914        0.01389919507825
C           -5.90830097458065        1.54916656841848       -0.33873512187430
C           -7.28825835060967        1.54234661714071       -0.35785590312558
C           -7.98222327937238        0.39347138499667       -0.00982825092200
C           -7.28383760186480       -0.74528020913546        0.36109565665472
C           -5.90246026341205       -0.74589825189172        0.37449705231757
C           -0.50309406103311       -1.10201339052013       -0.66679679758871
C            0.85321560880965       -0.85188223734793       -0.67949785038341
H            3.34853825793696       -1.48783994891745        0.05525170360558
H            5.37355122373445        1.63085179664699       -0.67674994625924
H            7.81898682152990        1.63421576112763       -0.64099441585744
H            9.06057411150277       -0.39332266031744        0.02395603597529
H            7.82427023221419       -2.44030117907675        0.64385393860905
H            5.36943568171936       -2.45068175785951        0.61596394096332
H            0.89249646039928        1.95456657991279        1.20398080179136
H           -1.50692853911372        1.50522640431112        1.23956179883354
H           -3.35060274252392        1.48557867155575       -0.04921147572925
H           -5.37204873199031        2.44702505029201       -0.61174818326784
H           -7.82687964753843        2.43485694848133       -0.64077148606012
H           -9.06197364977406        0.38715217271090       -0.02093349751971
H           -7.81922942788393       -1.63934441304690        0.64504704208370
H           -5.37378980698059       -1.63432577767892        0.68151925136965
H           -0.89355836104485       -1.95634244242467       -1.20121707005409
H            1.50590253919363       -1.50708540261368       -1.23659816145472
