42
 energy: -65.221860241056 gnorm: 0.000073257590 xtb: 6.7.1 (edcfbbe)
N            3.39477080535479        2.97067204756933        0.43613170301018
C            3.16271220858307        1.85050908417120        0.29550953851054
C            2.80436379166669        0.49806384139896        0.14462115236157
C            3.78189026205960       -0.51489857963448        0.13512806024041
C            5.18740348473976       -0.41259575980694        0.04310794851250
C            5.88950737053422        0.76891246806518       -0.28866816128435
C            7.26339810065877        0.77563054920010       -0.36180767483780
C            7.99416676226437       -0.38145336112185       -0.11377352124300
C            7.32627294369580       -1.56221731399532        0.19748148146623
C            5.95470551328963       -1.58340400979878        0.26826775936375
C            1.40817411297532        0.23297419843392        0.07622871727826
C            0.45857707062833        1.26644664078144        0.31342106906162
C           -0.88176715622247        1.04473146756626        0.25017411182527
C           -1.40958342873937       -0.23772045839337       -0.06789983704806
C           -2.80584079382855       -0.50259778412189       -0.13681907355091
C           -3.16425636468412       -1.85547657863952       -0.28377960444420
N           -3.39609596182587       -2.97615107364833       -0.42055385808606
C           -3.78281591500419        0.51077705918558       -0.13127883313181
C           -5.18857163462283        0.40945704718024       -0.04133248188936
C           -5.95485705867262        1.58011172166928       -0.27057759440071
C           -7.32656481403930        1.55977151252555       -0.20217285077021
C           -7.99560497810212        0.38005067157257        0.11053418895368
C           -7.26586760258483       -0.77681314470454        0.36255870611612
C           -5.89184150616484       -0.77092109344498        0.29188444907305
C           -0.46004124324123       -1.27128875783230       -0.30467501578811
C            0.88030800591902       -1.04949805611030       -0.24178030603439
H            3.40889700494259       -1.52274876920840        0.25049974596631
H            5.34144295561097        1.67120733978955       -0.50428337381123
H            7.77754591973486        1.69034556503015       -0.61853028542559
H            9.07194610185641       -0.36542326024970       -0.17034770382988
H            7.88960349137190       -2.46516186379963        0.38265042326800
H            5.44164149302492       -2.50246649794421        0.51300808093051
H            0.82120658894369        2.25162320845856        0.56877259301955
H           -1.55073726031635        1.86046561683487        0.47324210509346
H           -3.40905528438799        1.51811826302065       -0.24870230687314
H           -5.44089712659716        2.49836886821892       -0.51646297367290
H           -7.88911944454603        2.46256090581869       -0.39044355867840
H           -9.07349654125994        0.36465726362740        0.16512918746247
H           -7.78092741795539       -1.69069143011184        0.62041942134300
H           -5.34460409979861       -1.67297411644432        0.51058625561113
H           -0.82269374169882       -2.25652515615682       -0.55977852179937
H            1.54917865448279       -1.86532569115265       -0.46477361171767
