42
 energy: -65.221965554319 gnorm: 0.000057155966 xtb: 6.7.1 (edcfbbe)
N            3.40823278652635        2.99513390763958       -0.25042941846821
C            3.16802223719035        1.87343040727305       -0.13938983816531
C            2.80321024768627        0.52359917573720        0.01850750898671
C            3.77775863221100       -0.46278349093616        0.26273107153213
C            5.18273638704326       -0.38575980242957        0.14211669341350
C            5.87602343495781        0.66398115697852       -0.50295932314041
C            7.24943477468398        0.65620742951676       -0.58383091754601
C            7.98775642521014       -0.38680598119674       -0.03474902861948
C            7.32819934941414       -1.44144188323619        0.58957755204812
C            5.95700519676403       -1.44893224451352        0.67090178383891
C            1.40766843823900        0.25016239323158       -0.00162367081731
C            0.45689871409424        1.30908785627262       -0.02225181276088
C           -0.88276293147032        1.07499170281861       -0.01546954557871
C           -1.40658622371762       -0.24778092699895       -0.00655993757561
C           -2.80223302560476       -0.52185161971676        0.00816645687055
C           -3.16583106439957       -1.86983278081211       -0.16756441166757
N           -3.40475268972728       -2.99030178211343       -0.29283676439070
C           -3.77732392532844        0.46121010174076        0.26235720452904
C           -5.18246760650921        0.38492605855201        0.14191157789836
C           -5.95625590763457        1.44406803528592        0.67935037253575
C           -7.32755044738251        1.43713413849086        0.59942813733967
C           -7.98775197955232        0.38688086564941       -0.03153367605439
C           -7.24995385855438       -0.65202930492932       -0.58898490599837
C           -5.87640540461323       -0.66004638064520       -0.51008050740896
C           -0.45575240012348       -1.30632284771109       -0.03996418415781
C            0.88389441948964       -1.07238893515742       -0.02848669458757
H            3.40387139917746       -1.40793208266626        0.63075990659177
H            5.32097732704728        1.47016715280850       -0.95407756510227
H            7.75734536458900        1.46817758146209       -1.08356329462357
H            9.06514656784617       -0.38220403458370       -0.09996307124304
H            7.89760992587544       -2.25741291061400        1.01012214602799
H            5.44983889431665       -2.26890061868893        1.15896903030067
H            0.81814401472846        2.32726700126912       -0.03275597388332
H           -1.55561446846576        1.91728850269895       -0.04218606342805
H           -3.40391708057162        1.40301048349223        0.63930047889847
H           -5.44868309059258        2.26062673931774        1.17268849389244
H           -7.89649336565029        2.25009471196151        1.02639847233906
H           -9.06522590024800        0.38253851697182       -0.09537969998496
H           -7.75831998755849       -1.46057706413470       -1.09377463491543
H           -5.32192891302219       -1.46298578812892       -0.96759437611146
H           -0.81690659820780       -2.32428661711105       -0.06418656629625
H            1.55691938508326       -1.91416798095526       -0.06547044509187
