90
 energy: -142.100337951266 gnorm: 0.000047201392 xtb: 6.7.1 (edcfbbe)
C            6.74278690381803       -3.89618788712054       -1.78781280449468
C            6.17448577204292       -3.50276250725656       -0.58669052588513
C            6.53748532772426       -2.30247065809570       -0.00423021068164
C            7.46693899203747       -1.48239185366846       -0.63628936105618
N            7.84534900465652       -0.26235418367015       -0.04462175772278
C            7.02551629602689        0.72642330252886        0.45805105279663
C            5.57966012173781        0.73917443565028        0.29759372717108
C            4.95946036847377        0.26699156552525       -0.85893380696337
C            3.58440418705460        0.29538182762129       -0.97350931527071
C            2.80115142054682        0.79326129278430        0.06466701223006
N            1.39169730691035        0.79024246026556       -0.04183252976390
C            0.70265823563283       -0.42364794170016       -0.06517515427847
C            1.37406697440711       -1.63504311025489        0.02368665631446
C            0.68999271657475       -2.84144189477919       -0.04275419065669
C           -0.67772213026406       -2.84382912623479       -0.20782343597706
C           -1.36725814483487       -1.63991140677567       -0.26064384673128
C           -0.70150268803881       -0.42655493373756       -0.15674566403297
N           -1.39876094072148        0.78317963560421       -0.16527592822631
C           -2.81103970859956        0.77350869097857       -0.20709684264041
C           -3.48947418070823        1.28158318877924       -1.31275120465039
C           -4.86819045893270        1.25472407220592       -1.35213793597835
C           -5.59707385926164        0.70438048821041       -0.29765878634799
C           -7.04983781793584        0.68740876934305       -0.37669559643197
N           -7.75174150919716        1.65181982436279       -0.91143039856633
C           -9.06409821590317        1.29646190888170       -0.75562774413158
C          -10.22750034435135        1.95415106236444       -1.14251368649319
C          -11.43131155189030        1.34157817279618       -0.86546158348968
C          -11.49264926153444        0.09973656785423       -0.22849566507648
C          -10.35123922431092       -0.56964772557564        0.16586489769876
C           -9.13817691156247        0.04923580882970       -0.09117421661531
N           -7.83262796799929       -0.32226107078765        0.14327394799509
C           -7.41019714072566       -1.55580770476095        0.67390277068035
C           -7.90606333404681       -1.99155581230162        1.89764205308772
C           -7.49877067803650       -3.21199469131555        2.40739314254860
C           -6.59645780446722       -3.99492459638041        1.70661172691812
C           -6.10344143014351       -3.55898639062532        0.48708532366384
C           -6.51136292799457       -2.34583302197865       -0.03593617632457
C           -4.91548241608494        0.21785495383987        0.81776713718967
C           -3.53695434045728        0.25462984534686        0.86223071700582
C           -0.71020954603481        1.99762738685217       -0.12269177689791
C           -1.38700696122888        3.20837332395165       -0.08497463948295
C           -0.69860766531616        4.41416628683331       -0.08811582122440
C            0.67845912748068        4.41639441385884       -0.13741665189100
C            1.37008853626814        3.21254419482053       -0.13438594440361
C            0.69623845411117        2.00031859053817       -0.09131512850763
C            3.41910456696861        1.29261336453554        1.20918675026032
C            4.79366841874866        1.27197375169887        1.31992213717079
N            7.68750296023367        1.67676239588037        1.06461892363763
C            9.00904676673355        1.33281712077416        0.97826563355729
C           10.14215601636021        1.98212326176126        1.45820336216103
C           11.36439963073836        1.38350585422709        1.23738736508144
C           11.47281897590101        0.16390136803510        0.56468742606749
C           10.36218546330091       -0.49702976005013        0.07892766604622
C            9.13167478846698        0.10776830183886        0.28058648777752
C            8.03820359496814       -1.87525121260630       -1.84149457936501
C            7.67523701291326       -3.08331338311002       -2.41071559426531
H            6.45981329464493       -4.83597651024924       -2.23705407962102
H            5.45093585659028       -4.13596653857195       -0.09565169345997
H            6.10755092333698       -1.99268772444130        0.93708002252543
H            5.55228783980650       -0.10426862497207       -1.68108048478018
H            3.10697722046014       -0.06850601601444       -1.87126294926586
H            2.44528322263852       -1.64164801617644        0.14719306495305
H            1.23947743389525       -3.76774893453804        0.02634569852544
H           -1.22281979828962       -3.77188026622073       -0.28723931059832
H           -2.43870955787380       -1.64973253283850       -0.38269465006215
H           -2.92743771491130        1.69233620794875       -2.13829564798201
H           -5.40330284993228        1.64695081253399       -2.20299832759000
H          -10.17485506498936        2.90723998149809       -1.64492644567801
H          -12.35290159363107        1.82656094110112       -1.15240470192565
H          -12.45788034592484       -0.34744801605381       -0.04197986870400
H          -10.40277216050061       -1.53439832881453        0.64798449067839
H           -8.59606849976982       -1.36771733121040        2.44657333817230
H           -7.88499605611492       -3.54784565335735        3.35815942201640
H           -6.27832582031161       -4.94438587040980        2.10963434764715
H           -5.40359495484325       -4.16872575890605       -0.06429477167499
H           -6.13996938907919       -2.00296719851526       -0.99058102207778
H           -5.46336770062836       -0.16944929346947        1.66339483794132
H           -3.01112094776871       -0.11890120736970        1.72839257834766
H           -2.46510204594953        3.21606221786985       -0.05145613761486
H           -1.25192619859246        5.34040751616233       -0.06157401361169
H            1.22879736588113        5.34427056976623       -0.16796695055980
H            2.44838677898466        3.22195297608479       -0.16431246480243
H            2.81321114391019        1.69146650063231        2.00906201801734
H            5.28198266208623        1.65546885323025        2.20226659116312
H           10.05263398814908        2.91780702038410        1.98741856637924
H           12.26343175173788        1.86216682081691        1.59720275121514
H           12.45048410761850       -0.27286780555772        0.42396577606328
H           10.44929239890731       -1.44536071406854       -0.42989139653212
H            8.75209730784492       -1.22804627105782       -2.32961688686339
H            8.11986446186104       -3.38598007910350       -3.34695030771142
