90
 energy: -142.026693131663 gnorm: 0.000022890705 xtb: 6.7.1 (edcfbbe)
C            7.08658243228517       -3.57699057948209       -2.47168358535383
C            6.48529105687775       -3.42304477226264       -1.23192038038095
C            6.75415217681621       -2.30957704313461       -0.45977496099646
C            7.62401965829478       -1.32824398157805       -0.93394867890891
N            7.91214597322713       -0.20293603546234       -0.14822998361943
C            7.02313794975603        0.59624366178443        0.56718697906487
C            5.60148764149909        0.60158416907729        0.40286630226895
C            4.95030844402673        0.15915330647351       -0.76659860774438
C            3.58098867083452        0.18960199766928       -0.86227957286431
C            2.80853386455049        0.67351344746635        0.19785575968751
N            1.39167969047210        0.67697745328280        0.10473535329624
C            0.70962375881913       -0.51838164818163        0.06927208687945
C            1.38107863055302       -1.74195347257125        0.16633279151834
C            0.69375450574165       -2.93208704640354        0.07687948355927
C           -0.68573465121466       -2.93055410800060       -0.12480805800004
C           -1.37489894371088       -1.73963690126448       -0.18547248156716
C           -0.70557735752684       -0.51772210420229       -0.05732625565341
N           -1.38893186698553        0.67762696094838       -0.06295360219909
C           -2.80496881111543        0.67588163052527       -0.16286726602209
C           -3.43301367484391        1.20094173871460       -1.30025729027685
C           -4.79893328327933        1.16852912295978       -1.40482149019406
C           -5.59735273360396        0.60621429689769       -0.38579776309490
C           -7.01737972983328        0.60362324203714       -0.56039114582453
N           -7.63760385672415        1.45484785054447       -1.36337727149510
C           -8.96713773700468        1.21944182771622       -1.21590678783730
C          -10.06207449630064        1.83181675547648       -1.82466425601016
C          -11.32134860189216        1.36941650619529       -1.50111254871042
C          -11.50772900986647        0.31779238818421       -0.60437449470351
C          -10.43573636297983       -0.30226207136507        0.01708426884240
C           -9.17115086408243        0.16895829266022       -0.28420069030175
N           -7.91213256391076       -0.21562673486162        0.12488584532236
C           -7.63181808729556       -1.36026022611872        0.88510840344807
C           -8.24561598025892       -1.54446543949552        2.12138519533414
C           -7.98434743572592       -2.68613963766783        2.85717555932397
C           -7.11027989170111       -3.64611828660162        2.37286191064358
C           -6.49912170010286       -3.46378925884896        1.14178596711451
C           -6.76006073700108       -2.33171009895330        0.39431203966237
C           -4.95129950426938        0.12434053000505        0.77113706664052
C           -3.58268821069053        0.15392345702891        0.87535013157705
C           -0.70938334716261        1.87217610809148        0.01794336995649
C           -1.38959726697940        3.09335544988247        0.07371183400950
C           -0.69745970533539        4.28383505070616        0.09605788030752
C            0.69626424570809        4.28539907637857        0.04995423193038
C            1.38977351676774        3.09551347846192        0.03809175586941
C            0.71098267795310        1.87258115995832        0.05830339090766
C            3.44149475569718        1.15858096914880        1.34986443773052
C            4.80825845875756        1.12535995379926        1.44574364024151
N            7.64916091142449        1.42491168068844        1.38842266655758
C            8.97780734121213        1.19480949752662        1.22304859158379
C           10.07739916377767        1.79125112522887        1.83894319354048
C           11.33420291865332        1.33918841396200        1.49195119369998
C           11.51362992568232        0.31294590273284        0.56492113388672
C           10.43680395893219       -0.29058325628146       -0.06430581039249
C            9.17449067786469        0.17086505474550        0.26081740008199
C            8.22744616523016       -1.48358823512343       -2.17920507473760
C            7.95842376226311       -2.60705855425991       -2.93986183875084
H            6.87779010715267       -4.45076270070524       -3.07024155120856
H            5.81030879214293       -4.17960753843936       -0.86008667037688
H            6.29881984134714       -2.18691644005977        0.51221078377833
H            5.52915149944060       -0.18019592846456       -1.61092463575185
H            3.09200768830293       -0.14414515186579       -1.76582608408549
H            2.44882973768789       -1.74383988557509        0.31189061739494
H            1.22912095187069       -3.86492352646433        0.15352048211725
H           -1.21973877941542       -3.86199027779411       -0.22452800133606
H           -2.44248983434181       -1.74014310549094       -0.33210973436112
H           -2.83131940288817        1.61155870995050       -2.09746672218163
H           -5.29847482064541        1.56218518242396       -2.27556075325616
H           -9.91598153036991        2.63729893800124       -2.52771092058246
H          -12.18819806859738        1.82602671376206       -1.95782350224148
H          -12.51059398446410       -0.02209619867844       -0.38995764105985
H          -10.58721060175561       -1.12396672547584        0.70169431837199
H           -8.91135037153864       -0.78399484600192        2.50282009845307
H           -8.46199183593398       -2.82247878405788        3.81636203854986
H           -6.90739483012297       -4.53411182582172        2.95224076396806
H           -5.82257233675534       -4.21261224242759        0.75729153403502
H           -6.29656006342993       -2.18645603808017       -0.57068155104363
H           -5.53389239381961       -0.24516879888354        1.60002267367845
H           -3.09811573151144       -0.20972613290857        1.76970223155143
H           -2.46712452940937        3.09393322687205        0.09806207415438
H           -1.23950347382003        5.21501430570818        0.13847555107590
H            1.23720019727472        5.21805715293127        0.03466848791579
H            2.46734321017783        3.09777276974188        0.01453730872576
H            2.84331287589980        1.53948609971231        2.16426116581693
H            5.31193741827301        1.48889252462143        2.32713983257776
H            9.93673151606054        2.57721787067466        2.56481299052046
H           12.20460220822997        1.78396171767375        1.95354604276524
H           12.51485701887463       -0.01984140226524        0.33250395966832
H           10.58283145501715       -1.09324766012009       -0.77232512016054
H            8.89131606648963       -0.71521684225340       -2.54779512238886
H            8.42826424389139       -2.72126834247363       -3.90577228202924
