  90
       -141.96397559
 C          7.0893311458       -3.5375639835       -2.5437375449
 C          6.4842479318       -3.4105466810       -1.3030085405
 C          6.7489666564       -2.3133279812       -0.5071317009
 C          7.6191028289       -1.3218765116       -0.9584303906
 N          7.9040588567       -0.2143345924       -0.1508167832
 C          7.0190323429        0.5894144123        0.5595986795
 C          5.5939749864        0.5998864151        0.4004197925
 C          4.9316073197        0.1346506462       -0.7512691405
 C          3.5607334911        0.1673062642       -0.8309635815
 C          2.8037719791        0.6810998109        0.2242195719
 N          1.3870289178        0.6839234002        0.1445949593
 C          0.7095209649       -0.5115911583        0.1511503190
 C          1.3797757203       -1.7293567215        0.3073064955
 C          0.6980695408       -2.9226523366        0.2483192349
 C         -0.6809655479       -2.9317968340        0.0129689407
 C         -1.3700709171       -1.7465917800       -0.1028688668
 C         -0.7089808749       -0.5184553129        0.0019346670
 N         -1.3909246234        0.6745980258       -0.0498719771
 C         -2.8041477279        0.6677958974       -0.1581501875
 C         -3.4274468344        1.1871637728       -1.2998254584
 C         -4.7933173315        1.1563630217       -1.4080064097
 C         -5.5919079504        0.6000132610       -0.3888713901
 C         -7.0141079187        0.6037879813       -0.5655823821
 N         -7.6288586709        1.4620621449       -1.3579086678
 C         -8.9594646286        1.2322619070       -1.2124017162
 C        -10.0514632261        1.8546291522       -1.8150533967
 C        -11.3108520559        1.3949784765       -1.4939927934
 C        -11.5004972833        0.3354572694       -0.6054899002
 C        -10.4329217060       -0.2952844699        0.0085510553
 C         -9.1662641165        0.1743140380       -0.2897420497
 N         -7.9086609402       -0.2181761759        0.1123307856
 C         -7.6277228010       -1.3646160649        0.8641248215
 C         -8.2528811278       -1.5663933539        2.0915020062
 C         -7.9885017534       -2.7121601970        2.8190952915
 C         -7.1005071705       -3.6589318707        2.3353621667
 C         -6.4772840646       -3.4586800082        1.1133800527
 C         -6.7406657378       -2.3224782979        0.3741261632
 C         -4.9530213150        0.1197657188        0.7704834288
 C         -3.5845532595        0.1491259298        0.8785831589
 C         -0.7159287886        1.8718395526        0.0007977585
 C         -1.3955405685        3.0946233991        0.0134239573
 C         -0.7056348222        4.2848237323        0.0037860591
 C          0.6923826515        4.2867762838       -0.0283361103
 C          1.3854431985        3.0984183364        0.0042044005
 C          0.7086058773        1.8759232838        0.0556167379
 C          3.4496123075        1.1921788273        1.3559822268
 C          4.8174632234        1.1524671009        1.4382478691
 N          7.6443948898        1.4138562111        1.3788040272
 C          8.9726938339        1.1771392683        1.2217228532
 C         10.0723862351        1.7637523928        1.8456246170
 C         11.3258741931        1.3008499293        1.5064105303
 C         11.5023492498        0.2735640024        0.5781538836
 C         10.4269988472       -0.3206051856       -0.0580309085
 C          9.1663455954        0.1520055293        0.2607892752
 C          8.2276979678       -1.4509643199       -2.2037621493
 C          7.9614896908       -2.5575977288       -2.9889761550
 H          6.8823645357       -4.3984783167       -3.1609424219
 H          5.8080464942       -4.1751534250       -0.9503191572
 H          6.2887588733       -2.2103160580        0.4645263251
 H          5.4974166504       -0.2264450745       -1.5946936036
 H          3.0564588217       -0.1893319131       -1.7175615834
 H          2.4446441905       -1.7212825329        0.4745375161
 H          1.2309914761       -3.8514451256        0.3732588219
 H         -1.2085036176       -3.8684080073       -0.0689280490
 H         -2.4340713537       -1.7551233465       -0.2749252683
 H         -2.8192418412        1.5929293494       -2.0950381194
 H         -5.2910571925        1.5476776075       -2.2801194115
 H         -9.9007775352        2.6643212665       -2.5106670554
 H        -12.1766827069        1.8578924030       -1.9444996380
 H        -12.5044397820       -0.0010349502       -0.3932029939
 H        -10.5860695190       -1.1235794762        0.6842863209
 H         -8.9288065051       -0.8159179577        2.4735154421
 H         -8.4746291640       -2.8628795936        3.7715249477
 H         -6.8952992325       -4.5507521242        2.9075976676
 H         -5.7892230232       -4.1974623163        0.7297604613
 H         -6.2677879030       -2.1639344579       -0.5838537473
 H         -5.5374935088       -0.2465004108        1.5990266389
 H         -3.0999966441       -0.2109014341        1.7747599572
 H         -2.4732406885        3.0947736621        0.0306168725
 H         -1.2473056714        5.2168875625        0.0119799652
 H          1.2310123932        5.2197563603       -0.0674981758
 H          2.4632982572        3.0994307831       -0.0081837051
 H          2.8585344375        1.5982015041        2.1638215046
 H          5.3340235650        1.5350806236        2.3031996545
 H          9.9321095997        2.5483212800        2.5715590051
 H         12.1974673629        1.7353900225        1.9737703685
 H         12.5021162771       -0.0666495512        0.3525286722
 H         10.5687145821       -1.1239304247       -0.7658001438
 H          8.8927754228       -0.6751307809       -2.5529872053
 H          8.4335437931       -2.6516717139       -3.9556541505
