90
 energy: -142.026601406600 gnorm: 0.000072195790 xtb: 6.7.1 (edcfbbe)
C            7.02155610574736       -3.77284411608445       -2.12766554223007
C            6.42137910633838       -3.49980355706955       -0.90805064532312
C            6.71073501473640       -2.32873829647584       -0.23494719854086
C            7.59999743494486       -1.40901477918894       -0.78987765543358
N            7.90560042500300       -0.22464068826896       -0.10413132074841
C            7.02574210206751        0.63984215182825        0.54366786708635
C            5.60507940194752        0.64577753367004        0.37293391141931
C            4.95831448114553        0.13386530016525       -0.77063001584241
C            3.59016754994982        0.16425955764738       -0.87648604377572
C            2.81260503235338        0.71140372043914        0.14946639504445
N            1.39736727258761        0.70736055277097        0.05143802271601
C            0.71880108904572       -0.49139356367385        0.03792455544771
C            1.39241005791674       -1.71133642541379        0.16300101331756
C            0.71013922175811       -2.90525896322671        0.08415023068855
C           -0.66626208543558       -2.91155760346027       -0.13520472906884
C           -1.35879834586733       -1.72384019221395       -0.21660023123933
C           -0.69553635221416       -0.49778164428405       -0.09506278657892
N           -1.38516739981814        0.69441690211076       -0.11093461724577
C           -2.80108651406384        0.68437891329885       -0.19903001709551
C           -3.44436200387035        1.22327546722936       -1.32167119025015
C           -4.81109343099032        1.18384171852353       -1.41323794607724
C           -5.59512403809704        0.59649325117133       -0.39738698473670
C           -7.01707059092870        0.58437033708530       -0.55488718207232
N           -7.65893987293096        1.45482631066350       -1.31901952759890
C           -8.98342232683561        1.20008785637306       -1.15739625871504
C          -10.09465583409938        1.82151888389930       -1.72613882318823
C          -11.34363571408892        1.33592006258515       -1.39664849298382
C          -11.50415665539687        0.25263621764755       -0.53319129761693
C          -10.41559886275842       -0.37752762371908        0.04799616602441
C           -9.16103749646598        0.11652027616764       -0.25852248412397
N           -7.89142373549943       -0.26767541133259        0.11663340238953
C           -7.58240680025193       -1.43713367357209        0.82599944984992
C           -8.17540855721785       -1.68242801617252        2.06179463744312
C           -7.88388791365595       -2.84804032878358        2.74691707454705
C           -6.99999988428483       -3.77174788634961        2.21250582468204
C           -6.40960038907841       -3.52865371759673        0.98181511809383
C           -6.70085550887591       -2.37223490275534        0.28458104401723
C           -4.93441994857419        0.09821440201681        0.74432923268606
C           -3.56562504479607        0.13884966374553        0.83745771057806
C           -0.70956657808405        1.89282031040007       -0.04760474092830
C           -1.39358081857703        3.11208685385645        0.00142370510294
C           -0.70614821215063        4.30566312225424       -0.00445326346262
C            0.68620707444564        4.31160733740154       -0.07511121482657
C            1.38407214288585        3.12418003411073       -0.07497797762542
C            0.71078077510680        1.89910276576007       -0.01953011053793
C            3.44222587460491        1.26533269375259        1.27257137166287
C            4.80844297218502        1.23734863188526        1.37613754354225
N            7.66049403362374        1.52387402675318        1.29762953556537
C            8.98648590586845        1.26541225083870        1.15327657045419
C           10.09266799669493        1.89619998039905        1.72146538425259
C           11.34434150029906        1.40352431323323        1.41331353111325
C           11.51226967436629        0.30449360103189        0.57145667065982
C           10.42888031690621       -0.33525578248603       -0.00885728094525
C            9.17187463321461        0.16533037215744        0.27627482377072
C            8.20294253492246       -1.68438625664063       -2.01441821972148
C            7.91325057306108       -2.86446115507745       -2.67518644147550
H            6.79640855228514       -4.69098146812039       -2.64889293235946
H            5.73129491263869       -4.20779700761698       -0.47356502952406
H            6.25754066980976       -2.11439397946555        0.72202816973168
H            5.54113552051239       -0.25792403010085       -1.58923710579444
H            3.10548374533735       -0.21891847216768       -1.76258803913080
H            2.45824793091273       -1.70897305150773        0.32133646224797
H            1.24791830009935       -3.83473779895977        0.18169210737291
H           -1.19586140436973       -3.84594232232089       -0.23067538236606
H           -2.42472155497110       -1.73056842247643       -0.37445472811011
H           -2.85350053010527        1.65002196641442       -2.11854556546581
H           -5.32170165167049        1.58938166149099       -2.27206911018441
H           -9.96834334128398        2.65092483186475       -2.40472084697968
H          -12.22273690752418        1.79898789641700       -1.82234989968394
H          -12.49978137432601       -0.10439468238558       -0.31305737492915
H          -10.54745679272936       -1.22360646457929        0.70645594095476
H           -8.84888769822842       -0.95045113311359        2.48318220033125
H           -8.34556792915344       -3.03116726455329        3.70612674882753
H           -6.77333598608912       -4.67854084424777        2.75261766672803
H           -5.72543891825844       -4.24872107960856        0.55793790602392
H           -6.25456466214322       -2.18097517812700       -0.68049691519296
H           -5.50675463247620       -0.29112031474334        1.57137024685723
H           -3.07023230006888       -0.23437350548701        1.72188949405853
H           -2.47056267221810        3.10948872697988        0.04227562891252
H           -1.25139223744581        5.23517978476864        0.03305260146004
H            1.22321767360652        5.24571526454937       -0.11736470445216
H            2.46102366168004        3.13072263749823       -0.11609686904292
H            2.84148366657086        1.69440839074544        2.06075451908472
H            5.30843235066619        1.65422509806559        2.23581027389765
H            9.96058164708814        2.73832249498877        2.38309668428786
H           12.21967378424512        1.87350132667580        1.83919826009054
H           12.50965877465236       -0.05740477601902        0.36789418765237
H           10.56627496769820       -1.19365154799895       -0.64999888707472
H            8.88268128578392       -0.96455497959000       -2.44658429225289
H            8.38279079573256       -3.07116734059472       -3.62573231976707
