70
 energy: -106.642545642981 gnorm: 0.000056154965 xtb: 6.7.1 (edcfbbe)
C           -8.18841346279513       -2.71354889190177       -1.29841556865234
C           -8.25541662482382       -1.36717307610434       -1.61827171666618
C           -7.27862298456795       -0.49488228446265       -1.17357515521193
C           -6.22862063285402       -0.96914945579845       -0.39271902260085
N           -5.23588831151707       -0.08680922401497        0.06490209980591
C           -5.45614099731136        1.09822191196765        0.74159924128383
C           -6.65004104015758        1.67247199050832        1.15422706236929
C           -6.58592033939547        2.87118069690882        1.84036970747946
C           -5.36728239620551        3.48558433100733        2.12022231857444
C           -4.17399767053922        2.90653848921281        1.73258519051794
C           -4.21343384152478        1.70204818539046        1.04374589045968
C           -3.19824768225238        0.83315702689948        0.51171138451320
C           -1.81691353128886        0.89961577387558        0.47731681633007
C           -1.09504815422396       -0.12343693768430       -0.14292217542871
C            0.36094658775447       -0.08330598122193       -0.19009838842043
C            1.12113988353620       -1.20134327878956        0.27473679856881
C            0.51148797810901       -2.30740006685659        0.87565843223180
C            1.24265850973962       -3.43412792194615        1.24279393936788
C            2.60210248976382       -3.47301925846299        1.01478537119293
C            3.24561035414103       -2.35824820635320        0.48400851092440
C            2.54452236763755       -1.19147435150156        0.16233799699254
C            3.21045874493056       -0.01266718444875       -0.29522958060617
C            4.66538591538969        0.02394049620725       -0.37332579862965
C            5.30320590080424        0.35961994406837       -1.59469620111789
C            6.66159719112679        0.38244647686573       -1.69813386395332
C            7.48438578301634        0.09557252773655       -0.58427350705589
C            8.88928329114866        0.12317864932041       -0.65580102657459
C            9.65192070986619       -0.15741175951347        0.44713310048796
C            9.03876532317747       -0.47826150721492        1.66781634016209
C            7.67559843555666       -0.51680878293270        1.76859432677025
C            6.86076735639087       -0.23336721874337        0.64966297459798
C            5.45764826004340       -0.26863415231570        0.72244629982496
C            2.45307894734626        1.13428249389461       -0.68671471702125
C            3.07311940770350        2.33724859145674       -1.03994219867547
C            2.34092223628167        3.42207726447982       -1.51584943210367
C            0.97315444212287        3.31501987005329       -1.65487341675808
C            0.32418162286977        2.15184031491910       -1.24877738128228
C            1.02682882106958        1.07431666406158       -0.69917575424318
C           -1.79621084227503       -1.19108188995789       -0.73858184781572
C           -3.17085553409318       -1.26715347371354       -0.72678409340689
C           -3.87815313928513       -0.25932564351646       -0.07964622560690
C           -6.16396766239036       -2.32121254964117       -0.06867036718620
C           -7.14030785788815       -3.18734921947555       -0.52621146685848
H           -8.95128050028280       -3.39175892941225       -1.65011039880628
H           -9.06811767752273       -0.99447831795122       -2.22413935947684
H           -7.31531902278191        0.55145696804272       -1.43829971841598
H           -7.59893368134377        1.19816054684577        0.95459587831868
H           -7.50178955155991        3.34043848402699        2.16898580190991
H           -5.35916050427505        4.42339941948652        2.65606834627130
H           -3.22857796637872        3.37492288558130        1.96236407937936
H           -1.29528960437912        1.71482246512508        0.95598746499615
H           -0.55104714646415       -2.28922759483227        1.06387386661928
H            0.73611392884046       -4.27578228529093        1.69234593194554
H            3.17646662190269       -4.35513589005986        1.25752759604801
H            4.31087087031000       -2.40056217414269        0.31546623903885
H            4.68697797596118        0.56026806897770       -2.45975340970076
H            7.13258549420404        0.61668520035933       -2.64296221103376
H            9.35761483838136        0.37206980506171       -1.59812344305093
H           10.73039497828271       -0.13248906374774        0.38512996049873
H            9.65475636299554       -0.69501885126601        2.52902149789329
H            7.19896264101292       -0.76546156820011        2.70667467113251
H            4.99231849995951       -0.49531195589026        1.67192036974821
H            4.14386749435061        2.43150717295369       -0.94171546032806
H            2.85270100520127        4.33394343854958       -1.78694238148791
H            0.39594427745038        4.13192076402302       -2.06301131355890
H           -0.74639809436221        2.08304141957681       -1.36708349790826
H           -1.22922191231855       -1.95101230954025       -1.25632184795663
H           -3.68202821136736       -2.07897248575222       -1.22205225757510
H           -5.35599203224171       -2.68255925576149        0.55011797822804
H           -7.08578873146943       -4.23553355513834       -0.27157179681415
