70
 energy: -106.642593356338 gnorm: 0.000053174866 xtb: 6.7.1 (edcfbbe)
C           -8.18728204844444       -2.82955047211951       -0.98471058769802
C           -8.25432780954645       -1.52865589199364       -1.45668284293927
C           -7.27806746211298       -0.61090377754787       -1.11397686446429
C           -6.22837110563273       -0.99251260162812       -0.28350779623761
N           -5.23634610174374       -0.06297262733057        0.07065029005769
C           -5.45806487998440        1.19116473029632        0.60768257002200
C           -6.65264595067074        1.80433589454892        0.95750192759228
C           -6.59059409569657        3.07197561338796        1.50597864017561
C           -5.37301800280047        3.71698925372771        1.71184711137352
C           -4.17902627024214        3.10256159263447        1.38573979953959
C           -4.21635573550251        1.82886936023471        0.83498539799836
C           -3.20014482107575        0.90754229920419        0.40243397609861
C           -1.81875870987509        0.97251440007767        0.35722110554293
C           -1.09639782221710       -0.11638599700144       -0.13613793188546
C            0.36066821596850       -0.08548923126148       -0.18294830299253
C            1.11351134464994       -1.13145881856251        0.43553767726906
C            0.49466807769777       -2.14196050874868        1.17848104982642
C            1.21965732281530       -3.20459178362345        1.71185862782006
C            2.58190037462127       -3.27421129350679        1.51016775150992
C            3.23318112181149       -2.24806271364558        0.83047795769629
C            2.53756419803298       -1.14121081809254        0.33322654689715
C            3.20971883237171       -0.04686720783129       -0.29322485228229
C            4.66527720310825       -0.03271736484529       -0.37615259882990
C            5.30288557498983        0.09675144499953       -1.63602773782224
C            6.66122351849389        0.08851601843452       -1.74299394265977
C            7.48375175223553       -0.02367156749581       -0.59812393948919
C            8.88874499916355       -0.02305612672101       -0.67436472030226
C            9.65131185612327       -0.12708891390628        0.45894946816448
C            9.03791964432349       -0.23827045435670        1.71612613205374
C            7.67472748824333       -0.24711520635157        1.82284913184390
C            6.86001910120085       -0.14150620602448        0.67338857367582
C            5.45669936440296       -0.15152174461048        0.75187777874974
C            2.45952707857494        1.03461195085293       -0.84976748176808
C            3.08841278616092        2.16499392133190       -1.38165671150785
C            2.36229084883715        3.17958380195621       -2.00064855611431
C            0.99140589340347        3.07335062103704       -2.10422934710903
C            0.33475883299645        1.98738637486512       -1.53070004612451
C            1.03268939435825        0.98747138427678       -0.84529875102205
C           -1.79562812271652       -1.24805455538961       -0.60068078640563
C           -3.17021930509401       -1.32379831360389       -0.58086108518389
C           -3.87848004144306       -0.24808370507688       -0.05580049297636
C           -6.16386619937254       -2.29843002051024        0.19353076971208
C           -7.13982395831459       -3.21151483702770       -0.16236217659365
H           -8.94952538660938       -3.54384260743031       -1.25741685551554
H           -9.06648451360772       -1.22784283930708       -2.10193935084624
H           -7.31529816528018        0.39844822128278       -1.49610424815392
H           -7.60027682140255        1.30729196405313        0.81538982269888
H           -7.50686116680685        3.57192768565484        1.78427145050029
H           -5.36632042774717        4.70821314315215        2.14098610553438
H           -3.23460172881636        3.59660142212511        1.55890972984640
H           -1.29823520874291        1.84032581491643        0.73379698534982
H           -0.57024392333091       -2.09805298604641        1.34783305335562
H            0.70625971912980       -3.97435582624897        2.26947386892685
H            3.15260441168229       -4.11070614980102        1.88623164807221
H            4.30008661949422       -2.31476641936950        0.68149563705124
H            4.68601702675205        0.16272989752003       -2.52118331099812
H            7.13231506056923        0.16308521359181       -2.71347389628973
H            9.35718585198213        0.06423859845289       -1.64502014429621
H           10.72982516554194       -0.12312008730705        0.39300562899174
H            9.65385026765010       -0.31727882789946        2.60071852206345
H            7.19795225022440       -0.33569860084045        2.78915765567036
H            4.99126917103077       -0.21919941360579        1.72568700651769
H            4.16143983637166        2.25822697673423       -1.31045566008707
H            2.88080681390723        4.03572479891788       -2.40685022488770
H            0.41798903245167        3.83356767532916       -2.61448854217516
H           -0.73815675496377        1.91719062786646       -1.62423161060720
H           -1.22698781350514       -2.06377694155495       -1.02294341147544
H           -3.68023186256466       -2.18899851584078       -0.97695782407951
H           -5.35656478287150       -2.58639414967352        0.85044778639068
H           -7.08537264443409       -4.22353611259579        0.21094418570688
