70
 energy: -106.710170935498 gnorm: 0.000062339754 xtb: 6.7.1 (edcfbbe)
C           -8.34277234869811        2.62084303768032        0.58392432233363
C           -8.33454084069108        1.41165256386427        1.25997864327625
C           -7.31030142360290        0.50504172745358        1.05552053352788
C           -6.28845519489286        0.80195838784115        0.15837937891109
N           -5.24820846394109       -0.11740323295411       -0.05547059103881
C           -5.39945926141028       -1.45241382811344       -0.37215799038615
C           -6.55844897435602       -2.18173419095083       -0.60018769055553
C           -6.42663852941773       -3.51692845733985       -0.93064674315285
C           -5.17473256159997       -4.11997974148767       -1.04058291977153
C           -4.01752395888064       -3.39471161080982       -0.83825984744864
C           -4.12423272096795       -2.04975400701766       -0.50723446677930
C           -3.16109127883572       -1.01456508720689       -0.25613351943870
C           -1.77329529436494       -0.98860885709787       -0.23327309592535
C           -1.12899047786207        0.20153186145811        0.06572546045922
C            0.35262238958743        0.26456041631925        0.08372287540022
C            1.04574683827916        0.64767913992358       -1.07174899551411
C            0.36623375905501        0.97533166720951       -2.27488600756898
C            1.04948189292765        1.34338821167888       -3.39277820831387
C            2.45824505443348        1.40697027527396       -3.37762336534089
C            3.14770701650663        1.09964590640443       -2.24524562559738
C            2.47404829185944        0.71200931908085       -1.05658759551435
C            3.17261232604553        0.39000864190526        0.11397125114792
C            4.65296219492418        0.46327891297413        0.13127404193987
C            5.28391227735354        1.69431781430794        0.40959485878923
C            6.64583792962279        1.78915205967119        0.43369584268109
C            7.45525001794502        0.66149697736987        0.17839052320262
C            8.86430901066479        0.72652663083520        0.19398599846183
C            9.61763276373037       -0.38568191339149       -0.05949649011640
C            8.99657080384653       -1.61370987010076       -0.33990921836099
C            7.63330149016469       -1.70952811550389       -0.36162022739562
C            6.82709353182879       -0.58017996199783       -0.10423780437361
C            5.41892441481650       -0.64705285930433       -0.11889756999335
C            2.48033043477810        0.00816300543009        1.27017354844577
C            3.15948839615714       -0.31460649542283        2.47495715590381
C            2.47534517544343       -0.67923558662228        3.59346784351231
C            1.06667847003797       -0.74534612291167        3.57704331248934
C            0.37798572255473       -0.44267103285346        2.44300778668455
C            1.05186384511051       -0.05630579409086        1.25417216385486
C           -1.87308675551911        1.35039031566983        0.35784042780115
C           -3.25379269420959        1.34662218299881        0.34299741510110
C           -3.89806736490507        0.16147898352568        0.01601600502360
C           -6.30096107327593        2.01467602740488       -0.52460199708398
C           -7.32348421788932        2.91975557482917       -0.30535618658278
H           -9.14178920975309        3.32798688510905        0.74914381971230
H           -9.12531296471578        1.17544968779797        1.95683120412157
H           -7.28983865944288       -0.43004673665018        1.59545668765758
H           -7.53233590318670       -1.72076487085408       -0.53168412133723
H           -7.31393989942666       -4.10649878679971       -1.11085621696123
H           -5.11425202091384       -5.16758677325651       -1.29718631295531
H           -3.04696191706082       -3.85759095345024       -0.93869667124463
H           -1.20031701130121       -1.87977950981592       -0.44390924279087
H           -0.71283430976604        0.92351683710855       -2.28381146748463
H            0.51890901765417        1.58905051686517       -4.30152051401928
H            2.98422118536518        1.70009235264749       -4.27484292036113
H            4.22713098356537        1.14516606907048       -2.23231131066758
H            4.66748753933300        2.56044907411242        0.60516304224304
H            7.12449199209087        2.73443156669432        0.64880688115671
H            9.33752803039801        1.67430223858240        0.41025839018780
H           10.69664569751582       -0.32890892047172       -0.04617950538646
H            9.60753356493525       -2.48274242753920       -0.53825141625347
H            7.15055032277317       -2.65275259507302       -0.57642775621554
H            4.94192810670132       -1.59365994028355       -0.33356327691919
H            4.23866483264127       -0.26262510982378        2.48603703179465
H            3.00565063072926       -0.92074835725194        4.50346806189832
H            0.54047902031907       -1.03680915932224        4.47467777141900
H           -0.70121950684487       -0.49047643445970        2.42734710745897
H           -1.34474397433820        2.26041316997770        0.60401676720567
H           -3.81052907993064        2.23875983028948        0.58714006015213
H           -5.51543579920380        2.23593037546541       -1.23192006172527
H           -7.32781428051880        3.85937409541239       -0.83808826335575
