96
 energy: -146.792711616364 gnorm: 0.000026666728 xtb: 6.7.1 (edcfbbe)
C           -5.08224004908168       -3.17990858060789       -2.44812871801654
C           -5.39119202879033       -3.35669527440757       -1.10993874281776
C           -5.37742843002047       -2.27833611500901       -0.24360509970272
C           -5.05507678221126       -1.00334968894469       -0.69774417022441
C           -5.04125289412489        0.17517846829662        0.27918541637152
C           -6.43851602211972        0.71523600459881        0.53169119841383
C           -7.56174588049792        0.23367019285349       -0.12455304577007
C           -8.81264198075083        0.76970734566550        0.13881813286173
C           -8.95607447725287        1.79370062775760        1.05759177092047
C           -7.83823750600532        2.28440431217358        1.71408350465545
C           -6.59122331033041        1.75014358226431        1.45194696632172
C           -4.41292109079428       -0.31728396086719        1.56868163229564
C           -5.15305893196351       -0.71427188059955        2.67300378923078
C           -4.53184973221895       -1.23830380952882        3.79302693060872
C           -3.15264188451478       -1.36421718583174        3.82154921286971
C           -2.40035235686080       -0.96197250092516        2.73569190694762
C           -3.02476018693054       -0.45158681023316        1.59933479265349
N           -2.25395840388885        0.01209361764062        0.52436524997747
C           -1.07250569713683       -0.64419839116927        0.22226839181090
C           -1.03920538463710       -2.04611719120969        0.21898351313180
N            0.03695826256316       -2.70416124138214       -0.17267615129748
C            1.10270952992672       -2.00799919051384       -0.52003330332149
C            1.11952098814951       -0.60664705298501       -0.43150966821159
N            2.28998651957224        0.08389636324217       -0.67793079219531
C            2.74371949720458        1.17786905202172        0.08171483622603
C            1.87516411982196        2.10582218167169        0.64447925463671
C            2.36792473831975        3.17702194541775        1.36693210657059
C            3.73203489827980        3.33863337062393        1.52887206018979
C            4.59978918075522        2.40571239530678        0.98768112346062
C            4.12457707595695        1.32033602166450        0.26706981850768
C            5.04688253906355        0.22579349138583       -0.24188919685593
C            4.96185851178395       -0.98178850456522        0.69440361396755
C            5.35131692078763       -2.23709862771361        0.23760058734330
C            5.27164519944163       -3.34631743344927        1.05985326043503
C            4.79820396834127       -3.22089888560971        2.35526850271532
C            4.41981742995693       -1.97472765413087        2.82235553212663
C            4.50365556202577       -0.86326707733851        2.00028415698807
C            6.46780724058010        0.74709352299846       -0.36750664178974
C            6.71595513916568        1.78691096061999       -1.26108730917024
C            7.98862634924653        2.30523602706876       -1.40630133749077
C            9.03668874802151        1.79391512222901       -0.65708399877209
C            8.79770777989274        0.76637297266930        0.23753729624328
C            7.52123201337336        0.24609891638371        0.38325847087195
C            4.51130179683732       -0.22366117843012       -1.58840886456010
C            5.32244875174880       -0.59144213357582       -2.65206754967069
C            4.77433734740780       -1.07274523192012       -3.82813885381184
C            3.39940313871130       -1.18489196898201       -3.95489196116187
C            2.57762905394434       -0.81388653335132       -2.90881935524811
C            3.12815631607366       -0.34795783575609       -1.71719773572780
N            0.01818350210857        0.05569646013048       -0.08189206292542
C           -2.75516774516379        1.11089262873817       -0.19355243502736
C           -1.92261981907801        2.03083505445592       -0.82158862277668
C           -2.45555530554607        3.11186353094698       -1.49857658791056
C           -3.82596352090470        3.29307597616335       -1.54993045925057
C           -4.65976815508169        2.36566948973069       -0.94963074649638
C           -4.14433997249968        1.26830666206888       -0.27579401856013
C           -4.75929478121690       -0.83406819858017       -2.04459811953265
C           -4.77018366077011       -1.91395723580378       -2.91141783548070
H           -5.08757152393544       -4.02190612399204       -3.12453918288351
H           -5.64324247855502       -4.33867952985544       -0.73641527396618
H           -5.62249713445794       -2.43040349662263        0.79723706685585
H           -7.46620685694677       -0.56248785567815       -0.84771075434417
H           -9.67740936040854        0.38259409933448       -0.38057951893761
H           -9.93188608335613        2.20993504830506        1.26075751936756
H           -7.93845379795216        3.08640069243446        2.43097639875795
H           -5.72006574111871        2.13699109022606        1.96191954649946
H           -6.22883441723194       -0.62330098113412        2.65095632228270
H           -5.12394621311820       -1.54981111523901        4.63985710542104
H           -2.65915139374392       -1.76596829061771        4.69369399087522
H           -1.32247431793399       -1.03783190972559        2.76055551137000
H           -1.89508219832960       -2.63843002429890        0.50816863013459
H            1.96653275632779       -2.57021336163922       -0.84353660304414
H            0.81407630699773        1.97459913870728        0.52938098668184
H            1.67812802750959        3.88698979080554        1.79832204340921
H            4.12235525079741        4.17581724348398        2.08741057111987
H            5.66253938640234        2.51078640043400        1.14565397218345
H            5.72234374841130       -2.34824067059735       -0.77065168244926
H            5.57818497978412       -4.31222532213033        0.68532514694703
H            4.72886297333125       -4.08740613456519        2.99628555326264
H            4.05631954164977       -1.86165013208837        3.83367724044333
H            4.20920415956091        0.10191618970422        2.38520490388339
H            5.89952699646166        2.19026325971218       -1.84366054449528
H            8.16329652887354        3.11081941870436       -2.10466764412769
H           10.03232471335964        2.19744427062226       -0.76925845906432
H            9.60685153261686        0.36422382260368        0.82998512906221
H            7.35039361952358       -0.55297715866974        1.08911836741752
H            6.39477878164300       -0.51002560371270       -2.55519025002336
H            5.42016171957663       -1.36171658650251       -4.64307480592515
H            2.96408257177065       -1.55254488231516       -4.87179437582888
H            1.50335342931535       -0.88109352856529       -3.00697919449596
H           -0.85721583240372        1.88478262483956       -0.79068974739305
H           -1.79240202056461        3.81452033186992       -1.98081595678411
H           -4.24821623658795        4.13928831720908       -2.07031874262972
H           -5.73030551329769        2.48370651119730       -1.02467731163683
H           -4.51969526820716        0.14736479753856       -2.42623528148089
H           -4.53412176457489       -1.76096126333273       -3.95473032203182
