96
 energy: -146.710061807084 gnorm: 0.000102640242 xtb: 6.7.1 (edcfbbe)
C           -5.31900512825977       -3.12833566544749       -2.82137474906825
C           -5.64040465255786       -3.30591686481246       -1.48630375981346
C           -5.58318501725793       -2.23891338249794       -0.60756136919358
C           -5.20388718049456       -0.97420593288124       -1.04592168940773
C           -5.14491727021321        0.19573944141743       -0.05666204872443
C           -6.52025190228059        0.79444582799435        0.18880595607095
C           -7.65823709856126        0.36927706412752       -0.48076155326401
C           -8.88577390124468        0.95883673756180       -0.22197859493703
C           -8.99012671325426        1.98035254533533        0.70487949867792
C           -7.85680973195587        2.41464457335427        1.37439892457694
C           -6.63306149035404        1.82681547485578        1.11727604374735
C           -4.55451212776069       -0.33737704554024        1.23399840044823
C           -5.33799742418716       -0.75917689258151        2.29780123078743
C           -4.76727352165609       -1.33724689292779        3.41860771269615
C           -3.39129422795346       -1.50087163808952        3.48602147690621
C           -2.59439419138050       -1.07863434973521        2.44300096115132
C           -3.16590770457579       -0.49836340842882        1.30779926783492
N           -2.35293486241334       -0.00969542486860        0.29034069146879
C           -1.12422440953753       -0.62976528993352        0.06126356420469
C           -1.11535302701812       -1.98920604423203       -0.15218802722168
N            0.02492669820900       -2.66722716347453       -0.38207348356227
C            1.15803947415353       -1.94064089054069       -0.43441217348100
C            1.15141021636824       -0.56947824598554       -0.31250585835410
N            2.37313843903368        0.10022059769870       -0.37241446727380
C            2.81009812008440        0.97999620223746        0.61874409457708
C            1.90442356719439        1.72505483180148        1.37278518035200
C            2.35695642377357        2.64111410421757        2.30079753435467
C            3.71726915291460        2.82153448759486        2.49333071365851
C            4.62033059095804        2.06466565390020        1.76601348331229
C            4.18703726809759        1.13784797934819        0.82984674420345
C            5.14958302067915        0.21685574633000        0.10460973071192
C            5.17259237567293       -1.14251299084098        0.81302557569671
C            5.61473477059662       -2.27182470123174        0.13107965835062
C            5.64056036959422       -3.50867283302307        0.74996249748983
C            5.22215036988998       -3.64026594059007        2.06339561585759
C            4.79016088261873       -2.52128655383646        2.75303041728829
C            4.76783982923644       -1.28226602420933        2.13472001489946
C            6.53234899806568        0.84475370538378        0.04560213882381
C            6.68317575405948        2.04384610318503       -0.64714895185560
C            7.91557849063669        2.66389221533116       -0.72526201003434
C            9.01920999425932        2.09619916338878       -0.10804547030003
C            8.87664305609744        0.90869441556541        0.58689521149528
C            7.64055830996618        0.28641839832177        0.66555274866356
C            4.60657788261083       -0.02035503998748       -1.29125222613676
C            5.42680845901074       -0.20365246008472       -2.39446471055540
C            4.89575052632620       -0.51930396199148       -3.63321505206526
C            3.52302844295190       -0.65541450858099       -3.78158786853186
C            2.69039966514479       -0.46803720658088       -2.69871213675775
C            3.22181670361810       -0.15518355556271       -1.44521153672673
N            0.00897467986012        0.11511406126936       -0.04145447499105
C           -2.82032385275396        1.05716331262083       -0.47661862295971
C           -1.93753224709149        1.94619695747936       -1.08899766970712
C           -2.41737101766132        3.03696315683054       -1.78542177622935
C           -3.78265798504838        3.25141839196379       -1.88628442403670
C           -4.66359064247958        2.35577335344993       -1.30394320054727
C           -4.20289279170540        1.25257523035026       -0.60123202860695
C           -4.89579995989065       -0.80336691973016       -2.38998866294892
C           -4.95111801804451       -1.87188377807158       -3.26912998322440
H           -5.35794436827308       -3.96183798206365       -3.50711445427824
H           -5.93616210815780       -4.27989116449492       -1.12402392457425
H           -5.83827113834467       -2.39391234122239        0.43016577263563
H           -7.59247554738552       -0.42439192641716       -1.20992313223053
H           -9.76300000890364        0.61567887942738       -0.75122370144986
H           -9.94792242840131        2.43816746054157        0.90435665345391
H           -7.92687517108198        3.21408317217009        2.09765533591201
H           -5.74943744320570        2.16814831356586        1.63815173336812
H           -6.41023782869314       -0.64177635906656        2.24416264367198
H           -5.39435011634404       -1.66382321947350        4.23388725765899
H           -2.93812025618188       -1.94930105834383        4.35719403339926
H           -1.52057853684897       -1.18420401657779        2.49640543268280
H           -2.03588857899708       -2.55224544815687       -0.17820543309306
H            2.08505153646715       -2.48323596145056       -0.54007634596160
H            0.84843634182628        1.57434137053263        1.21307383566219
H            1.64416910791272        3.21392882283395        2.87491453742221
H            4.07598275630529        3.53393732466769        3.22058788645083
H            5.67911363281959        2.18178279551652        1.94184225273939
H            5.94325049254297       -2.18567919110577       -0.89395486118307
H            5.98661016449952       -4.37271709884130        0.20131134638002
H            5.23548007933831       -4.60651002305253        2.54575653478274
H            4.46796385784314       -2.60846652947698        3.78064674936897
H            4.43315561908224       -0.42090677541370        2.69326039737758
H            5.82291783105572        2.48927421384557       -1.12701108372623
H            8.01551826643637        3.59271663179559       -1.26783536582825
H            9.98343321396992        2.57923628592354       -0.16817724027678
H            9.73006669303624        0.46005994775850        1.07451922259125
H            7.54445221282213       -0.63788838163537        1.21538336155110
H            6.49630249109653       -0.10536819421127       -2.28103948199725
H            5.55096488193381       -0.66383514196841       -4.47842290772164
H            3.10058341706935       -0.89871182769471       -4.74479137604876
H            1.61931262703206       -0.55376858721833       -2.80980312405359
H           -0.87720228814443        1.76939217052659       -1.00009107557727
H           -1.72229996367993        3.71964366710925       -2.25084637651186
H           -4.16315168902255        4.10092195226754       -2.43280071227762
H           -5.72731381007529        2.50531929173862       -1.41302502668426
H           -4.61170724500369        0.16992894279052       -2.76112001332550
H           -4.70450506806167       -1.71735063394151       -4.30966291718114
