96
 energy: -146.706179804422 gnorm: 0.000066768602 xtb: 6.7.1 (edcfbbe)
C           -3.36170603999449       -1.94787823406128       -3.69910579775966
C           -4.19461959978555       -2.52789474924270       -2.75705413330595
C           -4.62089097083998       -1.79821504460212       -1.66185945344655
C           -4.22489480574717       -0.47588867572641       -1.49173997480102
C           -4.69040001380808        0.30880080200353       -0.26443308045353
C           -6.09289642028058        0.85954764423126       -0.43882318353826
C           -6.80515999095118        0.73030633748054       -1.62232854786060
C           -8.08231709664520        1.25678610861853       -1.73540896346544
C           -8.66235415272635        1.92096789697907       -0.66965181125150
C           -7.95542259527247        2.06128982418286        0.51417744921650
C           -6.68190083347495        1.53655105283863        0.62724281566330
C           -4.60263536025731       -0.63250235794802        0.92648673365027
C           -5.69480976632219       -1.23120963800788        1.53272314919778
C           -5.52201124289674       -2.12007596138323        2.58114449741250
C           -4.24605785843853       -2.41732420598951        3.03869387108639
C           -3.14512987278361       -1.83776403144392        2.44048409303645
C           -3.31512622529055       -0.95837507014607        1.37296742259993
N           -2.22318439821275       -0.31976511127344        0.77124692559095
C           -1.08229827639012       -1.00347646074508        0.43044050018560
C           -1.11251522326576       -2.38730422495558        0.31927136080608
N           -0.00113470345357       -3.09050023831388        0.05551152056675
C            1.11031930368599       -2.39753702438762       -0.23400335409222
C            1.08003004851676       -1.01886696811272       -0.39674872630045
N            2.22136671529886       -0.34809751693650       -0.76133017631104
C            2.43457691294779        1.02211115493455       -0.52765097180060
C            1.46966727160487        1.97004038561522       -0.84702040758033
C            1.74735261059819        3.31294571596934       -0.68022116184313
C            2.98216227342848        3.71518686858036       -0.19522437356771
C            3.94913201998636        2.77111931741555        0.10994282306279
C            3.69428714175698        1.42075727893406       -0.06523345007248
C            4.68731297777354        0.31741947589232        0.25682509070889
C            4.22092012561238       -0.41962472555784        1.51293952881017
C            4.61018513946294       -1.73686522393849        1.73094664911573
C            4.18303480040821       -2.42316703116707        2.85351884081674
C            3.35611462110079       -1.80394458488707        3.77562746632197
C            2.97465732441462       -0.48914714103149        3.57340085089877
C            3.40720358100117        0.19981432358464        2.45318073302379
C            6.08973616320577        0.87455523950467        0.41056907115479
C            6.67685600662886        1.51444966026937       -0.67919137602513
C            7.95016116896578        2.04357846621326       -0.58620361426224
C            8.65886070379393        1.94467098419625        0.60077322208648
C            8.08108222580616        1.31666426173214        1.68942266472308
C            6.80398506781991        0.78606083712059        1.59656917022185
C            4.60116625030490       -0.66750043568620       -0.89829406545866
C            5.69463924301252       -1.28930885500959       -1.47847818917751
C            5.52416363112696       -2.21626361957491       -2.49372447024853
C            4.24933394354748       -2.52887837467801       -2.94406769282030
C            3.14713703106104       -1.92682290386073       -2.37098978676674
C            3.31469805826058       -1.00865388589057       -1.33622893384920
N           -0.00125781783091       -0.30296889235815        0.00325787210316
C           -2.43653246828601        1.04153212457968        0.49006066335886
C           -1.47102896220645        2.00014736577064        0.77359350137468
C           -1.74934150278187        3.33627462963903        0.55979595633318
C           -2.98534002038866        3.72101472391700        0.06377348941135
C           -3.95288099092660        2.76671745605975       -0.20574579079524
C           -3.69725068795930        1.42340096233813        0.01607858326108
C           -3.40569123469009        0.10387140205490       -2.45221814991711
C           -2.97385125023571       -0.62847796368074       -3.54488938090832
H           -3.02079976560734       -2.52024342113355       -4.54945031145552
H           -4.51068036715520       -3.55469441900743       -2.87177723045903
H           -5.26891784423609       -2.26111399114006       -0.93158595855565
H           -6.36537041200971        0.21742096263477       -2.46467099486209
H           -8.62316577326026        1.14581667873999       -2.66414119528846
H           -9.65815228772572        2.32961890690851       -0.75970178169379
H           -8.39729491274739        2.58177804223124        1.35144895420553
H           -6.13208325102062        1.65063873268143        1.55094221503239
H           -6.69019472811648       -1.01089321973648        1.17723463245060
H           -6.38299736653544       -2.58140981608831        3.03999629571079
H           -4.10943223934204       -3.10009399323669        3.86347750131385
H           -2.14738420890468       -2.05414637021722        2.79341564247119
H           -2.03914184450307       -2.93683535054969        0.37691477956649
H            2.03704275509172       -2.94876394008220       -0.27028815888216
H            0.51227107209005        1.64395551600172       -1.21829893529306
H            0.99837976703396        4.04612402483768       -0.93747839708762
H            3.19499513358258        4.76388491429832       -0.05283506564182
H            4.90673043369064        3.08938983896344        0.49349315846864
H            5.25364169439155       -2.23021465541719        1.01679413096922
H            4.49387801875793       -3.44678573334198        3.00510370854522
H            3.01480840678536       -2.34219327252067        4.64779461777723
H            2.33615240617343        0.00671479991944        4.29049836250563
H            3.10533877027569        1.22735782086874        2.31224536342898
H            6.12557607409094        1.59614184928788       -1.60545590069101
H            8.39035730443787        2.53505338942772       -1.44172292238409
H            9.65448952124810        2.35683489392285        0.67529551866697
H            8.62355774307138        1.23774754522030        2.62047737962446
H            6.36593504690929        0.30210669539877        2.45676841381774
H            6.68911068260842       -1.05682597839365       -1.12820140270118
H            6.38607094316906       -2.69499789214962       -2.93258045264151
H            4.11469590232868       -3.24078162804612       -3.74421074193728
H            2.15035451016345       -2.15568544840748       -2.71868538703758
H           -0.51281310601462        1.68744344052855        1.15418105801924
H           -0.99991985525733        4.07823390073906        0.78899048534125
H           -3.19872892821784        4.76403389739613       -0.11498460353569
H           -4.91144317309691        3.07118941555134       -0.59794405893796
H           -3.09894026679382        1.13437546155118       -2.34885125105831
H           -2.33103204956486       -0.16279542577870       -4.27826963740523
