  96
       -146.74877653
 C         -2.4263746235       -1.5954615483       -3.4839817149
 C         -3.2334588916       -2.3092902408       -2.6161094026
 C         -3.8174593930       -1.6814128763       -1.5297032743
 C         -3.5931945513       -0.3322667510       -1.2890127572
 C         -4.1700479391        0.3617561235       -0.0549009179
 C         -5.4541719087        1.1020915966       -0.3533284594
 C         -6.0579309504        1.0717403292       -1.6015768413
 C         -7.2371814666        1.7630909474       -1.8277131099
 C         -7.8272543121        2.4910024635       -0.8103433809
 C         -7.2331355293        2.5229249443        0.4411451404
 C         -6.0574164534        1.8331205472        0.6673028659
 C         -4.3688560872       -0.6807606734        1.0313819975
 C         -5.6000238938       -1.1361538616        1.4712484227
 C         -5.6754064582       -2.1263746169        2.4375028049
 C         -4.5189108239       -2.6601739747        2.9799611404
 C         -3.2812322306       -2.2138556403        2.5519363247
 C         -3.2043146144       -1.2418512913        1.5636879661
 N         -1.9731759292       -0.7328057562        1.1187377395
 C         -0.9856168097       -1.5054405947        0.5662320799
 C         -1.0113484194       -2.9081544118        0.5336487338
 N          0.0058033375       -3.5869666483        0.0365569612
 C          1.0277379904       -2.9302775869       -0.4811478743
 C          1.0097869992       -1.5298139428       -0.5580812209
 N          2.0012475567       -0.7785932858       -1.1335183255
 C          1.9697501266        0.6284885662       -1.0436967963
 C          0.8846509298        1.3548872178       -1.5089566156
 C          0.9147300592        2.7357784338       -1.4453251402
 C          2.0236259201        3.3852489181       -0.9300325412
 C          3.1060590255        2.6569815648       -0.4634659628
 C          3.0891386285        1.2734749792       -0.5182786265
 C          4.1673042614        0.3632791405        0.0522679683
 C          3.5596423106       -0.2855959675        1.2960544461
 C          3.7554780579       -1.6305140479        1.5806840461
 C          3.1421717888       -2.2150198323        2.6751725523
 C          2.3349451420       -1.4610721358        3.5082263632
 C          2.1609796415       -0.1118980498        3.2500922288
 C          2.7678216736        0.4709183498        2.1524858587
 C          5.4419467711        1.1171478207        0.3575547028
 C          6.0718291480        1.8114054387       -0.6725885554
 C          7.2400172375        2.5119200301       -0.4402355213
 C          7.7994536460        2.5283467259        0.8273973642
 C          7.1828285798        1.8371544021        1.8546073071
 C          6.0115777909        1.1345407267        1.6220732060
 C          4.3942842852       -0.7162479502       -0.9914027678
 C          5.6366465287       -1.1826585686       -1.3856466890
 C          5.7374005704       -2.2057298934       -2.3146697668
 C          4.5954516333       -2.7626455282       -2.8645230732
 C          3.3467028209       -2.3059939714       -2.4816164743
 C          3.2439114828       -1.2994540872       -1.5312095908
 N          0.0136421788       -0.8448459012       -0.0073995836
 C         -1.9472243306        0.6701584181        0.9779593215
 C         -0.8541763981        1.4159707995        1.3910846895
 C         -0.8889174286        2.7933035844        1.2747361620
 C         -2.0102781025        3.4209560481        0.7594613337
 C         -3.1016771590        2.6735796723        0.3474167147
 C         -3.0804853983        1.2932332664        0.4555674289
 C         -2.8019753806        0.3837225617       -2.1800494625
 C         -2.2233430721       -0.2428741002       -3.2687289361
 H         -1.9621870689       -2.0884691161       -4.3253517744
 H         -3.4059260066       -3.3629197830       -2.7804437655
 H         -4.4452815997       -2.2522285639       -0.8620956455
 H         -5.6085645879        0.5058288562       -2.4034904706
 H         -7.6952232903        1.7304532862       -2.8054216751
 H         -8.7457728148        3.0298032867       -0.9890450265
 H         -7.6878324546        3.0865168458        1.2427099797
 H         -5.5963602821        1.8559784452        1.6442644165
 H         -6.5054245664       -0.7283824238        1.0484558305
 H         -6.6405375798       -2.4803870413        2.7665800013
 H         -4.5787208799       -3.4221493883        3.7423482725
 H         -2.3748894172       -2.6083160065        2.9848193003
 H         -1.8437231982       -3.4904538368        0.8944027927
 H          1.8559489044       -3.5292914639       -0.8235767346
 H          0.0257953452        0.8363701169       -1.9001313683
 H          0.0697816618        3.3067739590       -1.7996722620
 H          2.0450972525        4.4638126514       -0.8798895952
 H          3.9575376516        3.1693838001       -0.0413592357
 H          4.3833420731       -2.2327716661        0.9413839469
 H          3.2919888273       -3.2663181201        2.8729807356
 H          1.8485718356       -1.9201807717        4.3562407187
 H          1.5446134336        0.4879858611        3.9049386007
 H          2.6200784517        1.5219450694        1.9541780085
 H          5.6374215201        1.7972681753       -1.6618935259
 H          7.7155804827        3.0465186586       -1.2495218868
 H          8.7117441903        3.0759164375        1.0111600689
 H          7.6138550154        1.8420843170        2.8450833986
 H          5.5419556020        0.5971485197        2.4319566623
 H          6.5306717370       -0.7572210620       -0.9561248534
 H          6.7109874707       -2.5672624999       -2.6087704340
 H          4.6753414134       -3.5509511660       -3.5977219505
 H          2.4520730547       -2.7191746798       -2.9213405582
 H          0.0141089043        0.9144885428        1.7829839970
 H         -0.0373718728        3.3786870641        1.5873219379
 H         -2.0347082508        4.4966279517        0.6667873430
 H         -3.9639448497        3.1677614445       -0.0744517089
 H         -2.6311892231        1.4370338037       -2.0159545361
 H         -1.6064972857        0.3257386327       -3.9505188279
