96
 energy: -146.799050504856 gnorm: 0.000047675466 xtb: 6.7.1 (edcfbbe)
C           -2.77117060787753       -1.74230917284543       -3.57726843410837
C           -3.65756551006369       -2.37169066239111       -2.72023898182814
C           -4.16265012644317       -1.69771253458810       -1.62229102745412
C           -3.78782227756666       -0.38467272628181       -1.36125626699825
C           -4.32402441575193        0.34416121007162       -0.12890156369379
C           -5.64702077330161        1.03218224933888       -0.40004706843565
C           -6.26174459741969        1.00545942884587       -1.64351841130268
C           -7.46990639017055        1.65422343986471       -1.84446150661654
C           -8.07862512724178        2.33685534543058       -0.80666877826351
C           -7.47129556445357        2.37002708608731        0.43871263874264
C           -6.26593383779557        1.72417964223684        0.63907186023134
C           -4.44314917671505       -0.67540276471468        0.99384994920039
C           -5.63992944125867       -1.17596405960624        1.48102087957076
C           -5.64501939990631       -2.12553549321626        2.48952927172517
C           -4.45167469815932       -2.57455130792161        3.02974384056857
C           -3.24830520865031       -2.08769457112330        2.55168601396439
C           -3.24184726600078       -1.16031937362313        1.51752853546472
N           -2.04312923271448       -0.60926589941350        1.02583307257771
C           -1.01205046953911       -1.35862433823918        0.52705381887853
C           -1.02626758357542       -2.76255199332185        0.50578086295567
N            0.00873108122767       -3.44376452906985        0.04915299669047
C            1.04458907544138       -2.78091964009124       -0.43206697161010
C            1.03152520864655       -1.37886147398095       -0.50516543902896
N            2.06321609993874       -0.64851302627539       -1.03016782332525
C            2.10731034004887        0.75801134136978       -0.91120215429308
C            1.06501811165369        1.55651171633180       -1.35615128204761
C            1.17690574797006        2.93266728054150       -1.27085644126244
C            2.32409439536485        3.50589620978854       -0.74943540485307
C            3.36490622883310        2.70631014767327       -0.30534850187546
C            3.26979950157565        1.32664001641465       -0.38768061972298
C            4.32200651299881        0.35265872858273        0.12297653449419
C            3.76005047163349       -0.33044162246829        1.37019828971547
C            4.12498806309336       -1.63432628314156        1.68548573400966
C            3.59610600478917       -2.26698716596458        2.79677261150966
C            2.69532502156573       -1.60484687836943        3.61311354184492
C            2.34158953970516       -0.29932617600230        3.31846882904612
C            2.87140203398718        0.33360263302294        2.20768063037563
C            5.63978625334669        1.04972748197600        0.39564407390673
C            6.27735428822831        1.70923969792416       -0.65327557775228
C            7.47920024615744        2.36126080954435       -0.45153460695624
C            8.06456663625357        2.36636698081498        0.80474984058374
C            7.43772715673231        1.71525462207102        1.85195838702777
C            6.23285318315534        1.06085033624717        1.64985705562258
C            4.46228204482433       -0.70755665350010       -0.95903223919074
C            5.66758754180809       -1.22215225139978       -1.40888067001607
C            5.69010341043158       -2.21047260512517       -2.37928189639974
C            4.50623491754164       -2.68398960519727       -2.91933241345131
C            3.29443497641100       -2.18230051379636       -2.47915084075086
C            3.27027608552624       -1.21543383244931       -1.48230685230903
N            0.00986441104488       -0.69025870413009       -0.00204556056355
C           -2.09181190144214        0.79125103055303        0.85235543034439
C           -1.04500896098382        1.60880043564628        1.24999615664610
C           -1.16096351399849        2.98026953444112        1.11145313882085
C           -2.31655779047052        3.53055326279817        0.58399657267879
C           -3.36214448436190        2.71214397857585        0.18830510434934
C           -3.26339514460707        1.33698179300815        0.32468768724263
C           -2.91414881609947        0.24603265773400       -2.23926508554288
C           -2.40826472476411       -0.42821078486629       -3.33688194362328
H           -2.36938826283549       -2.27156459237932       -4.42902207899183
H           -3.95499401632131       -3.39427038752239       -2.90259110348153
H           -4.85371024369821       -2.20069948506822       -0.96134442518245
H           -5.79904182107182        0.47694642847614       -2.46373023466227
H           -7.93498072187389        1.62342321914312       -2.81923146103539
H           -9.02056656565457        2.84101862628284       -0.96548262845621
H           -7.93776986579492        2.90109802529706        1.25577202022847
H           -5.79303144568130        1.75389286618315        1.61074467613152
H           -6.57431676423334       -0.83136392887695        1.06428851551495
H           -6.58411492261363       -2.51204650960634        2.85540676751636
H           -4.45491389560948       -3.30045301569332        3.82891249818460
H           -2.31267729193019       -2.41715838912856        2.97913926779486
H           -1.86956978046217       -3.34613810190129        0.84145066963144
H            1.88722457974954       -3.37727760034234       -0.74614008495670
H            0.17555472761037        1.09548189862690       -1.75295802063174
H            0.36606499224678        3.55642765092798       -1.61482226180226
H            2.40990732390053        4.58000967116075       -0.67932066355557
H            4.24828865675017        3.15993268900428        0.11837096027699
H            4.82706212475074       -2.16275898999715        1.05677907852445
H            3.88618472514944       -3.28321230026343        3.02147353510546
H            2.27535374451957       -2.10179683516493        4.47547405019331
H            1.64685238958067        0.23017399370710        3.95495436319955
H            2.58808256508877        1.35281902181553        1.98971033818374
H            5.82194120869421        1.70870597005014       -1.63371806831216
H            7.96013695653412        2.86718244056383       -1.27614349042040
H            9.00384127319475        2.87515245015050        0.96460202320233
H            7.88576499815830        1.71395715252535        2.83515140158070
H            5.75563880346662        0.55760644617444        2.47760008222078
H            6.59467047886670       -0.85864019098359       -0.99191220356142
H            6.63559136973198       -2.60788494676303       -2.71584618187036
H            4.52347058968829       -3.44092500806830       -3.68896969423077
H            2.36622976224751       -2.53052236039762       -2.90789094620152
H           -0.14888618767992        1.16543269784563        1.65170578396413
H           -0.34655730592102        3.61849436637876        1.41853012639428
H           -2.40561116950385        4.60082924460875        0.47184346945346
H           -4.25283947058344        3.14704515626107       -0.23975454398034
H           -2.62381274171134        1.27145382230583       -2.06349089455443
H           -1.72512986976808        0.07583502118399       -4.00574164015197
