  66
        -93.76937631
 C          7.0738343395       -1.7418817808       -0.5326809094
 C          6.1580283433       -0.5203344457       -0.5657457116
 C          6.5186229798        0.3453601197       -1.7796445770
 O          4.8075333114       -0.9465496724       -0.7505067158
 B          3.9955261060       -0.2009227373        0.0550611887
 C          2.4354469844       -0.2711540481        0.0213997704
 C          1.6591516422        0.5055045245        0.8833328258
 C          0.2809783614        0.4465098314        0.8569030826
 C         -0.3740336130       -0.3983995446       -0.0384342475
 C         -1.8423472270       -0.4970283398       -0.0568434830
 C         -2.6450224554        0.5905002025       -0.0262493112
 C         -2.1266808558        1.9603169320       -0.1759254831
 C         -1.2008264723        2.2753169112       -1.1687891017
 C         -0.7414350090        3.5702464688       -1.3127839008
 C         -1.1985438466        4.5715140597       -0.4714526927
 C         -2.1281427282        4.2713800519        0.5102495848
 C         -2.5945384619        2.9782339709        0.6531217485
 C         -4.1023528703        0.4914587012        0.1598609054
 C         -4.9613664763        1.2548941862       -0.6284817192
 C         -6.3299390641        1.1830121853       -0.4496342813
 C         -6.8619428405        0.3595632898        0.5287518854
 C         -6.0153359599       -0.3887869568        1.3303363819
 C         -4.6470705500       -0.3245434543        1.1494973003
 C         -2.3752751761       -1.8688464434       -0.1074454214
 C         -1.8223009307       -2.8623660868        0.6984178536
 C         -2.3043136474       -4.1566877785        0.6484757482
 C         -3.3352759426       -4.4829801626       -0.2168921273
 C         -3.8779716648       -3.5067515532       -1.0364924084
 C         -3.4031057294       -2.2102804679       -0.9843200764
 C          0.3933593504       -1.1918458172       -0.8905282698
 C          1.7714295427       -1.1208365133       -0.8644320736
 O          4.7029683630        0.6093138455        0.8954714117
 C          6.0918375765        0.2986701280        0.7754045329
 C          6.9025301399        1.5927229303        0.7833719000
 C          6.4658648088       -0.5363430756        2.0065523981
 H          7.0541860846       -2.2222075005       -1.5079242874
 H          8.0942199118       -1.4418569524       -0.3090175555
 H          6.7389248831       -2.4658643938        0.2035427551
 H          6.3762254435       -0.2475586487       -2.6804645299
 H          7.5520785813        0.6761913650       -1.7342580458
 H          5.8582849787        1.2074295593       -1.8389476050
 H          2.1591312230        1.1589580095        1.5825055364
 H         -0.3009257607        1.0463874499        1.5419233969
 H         -0.8506845752        1.5004541695       -1.8345236222
 H         -0.0248457456        3.8011995060       -2.0873612796
 H         -0.8358541811        5.5825814501       -0.5837641842
 H         -2.4925305862        5.0490020251        1.1660713292
 H         -3.3190329940        2.7453933084        1.4206779752
 H         -4.5475762699        1.8975232790       -1.3925703760
 H         -6.9851185707        1.7730797938       -1.0742327519
 H         -7.9313896169        0.3055573056        0.6697776943
 H         -6.4246904384       -1.0234948661        2.1029464126
 H         -3.9903690954       -0.9006315113        1.7841784657
 H         -1.0177488874       -2.6088229851        1.3739795343
 H         -1.8727399427       -4.9154632017        1.2851648743
 H         -3.7102442396       -5.4950645784       -0.2573307756
 H         -4.6737880736       -3.7589150252       -1.7224390628
 H         -3.8210482603       -1.4554985067       -1.6337828170
 H         -0.1038749321       -1.8561856188       -1.5841165557
 H          2.3585067287       -1.7314931421       -1.5341275166
 H          7.9532936221        1.3802494170        0.6044152304
 H          6.5402726155        2.2889408447        0.0333663364
 H          6.8001585409        2.0657885004        1.7569972415
 H          6.2321421190        0.0409090470        2.8984542025
 H          5.8773037849       -1.4503885627        2.0364805702
 H          7.5242165596       -0.7800361959        2.0106645664
  66
        -93.76926100
 C          6.9459758225        1.5811297853        0.6519162066
 C          6.0943124282        0.3190786785        0.7703276873
 C          6.4084515858       -0.3728637939        2.1027855418
 O          4.7135720671        0.6812887355        0.8127689504
 B          4.0029587957       -0.1944161456        0.0442652954
 C          2.4424987567       -0.2339640144       -0.0166331218
 C          1.6663963957        0.5775122303        0.8128210726
 C          0.2881030194        0.5227904178        0.7844126234
 C         -0.3681454350       -0.3499366842       -0.0832682783
 C         -1.8349666566       -0.4621986070       -0.0830688430
 C         -2.6536205905        0.6139317908       -0.0485663295
 C         -2.1627084173        1.9887590428       -0.2346622448
 C         -1.2581465544        2.2971688132       -1.2492463139
 C         -0.8243892159        3.5962365187       -1.4302865323
 C         -1.2867495421        4.6086550349       -0.6053283646
 C         -2.1956035097        4.3150089280        0.3975813849
 C         -2.6359694333        3.0174609348        0.5780571351
 C         -4.1027898506        0.4903928728        0.1814600706
 C         -5.0023543009        1.2260251328       -0.5877078787
 C         -6.3626824799        1.1292031101       -0.3628375384
 C         -6.8458724844        0.3081068899        0.6424705580
 C         -5.9585994738       -0.4126871515        1.4251206581
 C         -4.5986989433       -0.3231897965        1.1986443473
 C         -2.3536965929       -1.8403728317       -0.1130053859
 C         -1.7823873908       -2.8221670411        0.6943432007
 C         -2.2507665818       -4.1219025849        0.6575384085
 C         -3.2862341210       -4.4653562907       -0.1957657160
 C         -3.8481109911       -3.5005645507       -1.0158987154
 C         -3.3870050289       -2.1987178891       -0.9766284085
 C          0.3992409519       -1.1680889995       -0.9121239666
 C          1.7774749618       -1.1046630925       -0.8810044045
 O          4.8108895193       -1.0483531425       -0.6496507133
 C          6.1708027548       -0.6545902894       -0.4633037403
 C          7.0316342667       -1.8984372479       -0.2506646998
 C          6.6100250816        0.0451835243       -1.7555990728
 H          6.8231643483        2.1738043101        1.5552086161
 H          7.9953221274        1.3197694956        0.5427869655
 H          6.6341910276        2.1892396470       -0.1914087668
 H          6.1642506889        0.3120269479        2.9118761340
 H          7.4588695702       -0.6394472674        2.1707440218
 H          5.7946422672       -1.2624432172        2.2222165223
 H          2.1665320654        1.2512897522        1.4923517059
 H         -0.2928922013        1.1453422760        1.4496563550
 H         -0.9043881289        1.5132322424       -1.9023223774
 H         -0.1244286270        3.8218266859       -2.2215164035
 H         -0.9446526344        5.6232270575       -0.7470072017
 H         -2.5634222516        5.1011439245        1.0412519930
 H         -3.3435835378        2.7897933851        1.3627494656
 H         -4.6271513813        1.8664792183       -1.3732466876
 H         -7.0498953967        1.6975387414       -0.9730139710
 H         -7.9088246600        0.2347623639        0.8193608531
 H         -6.3293338278       -1.0448580080        2.2190464079
 H         -3.9101443573       -0.8773814829        1.8188826147
 H         -0.9736315400       -2.5556908967        1.3598297045
 H         -1.8045614440       -4.8717701269        1.2946438672
 H         -3.6499411876       -5.4818896994       -0.2262206425
 H         -4.6482197644       -3.7656941396       -1.6918756147
 H         -3.8203778147       -1.4523959678       -1.6256806017
 H         -0.0980071261       -1.8501212750       -1.5882480988
 H          2.3639233588       -1.7405019152       -1.5273597966
 H          8.0529852088       -1.6142958338       -0.0121094402
 H          6.6331737182       -2.5211645501        0.5442224411
 H          7.0346558169       -2.4854303524       -1.1658813745
 H          6.4760115448       -0.6466075365       -2.5843416625
 H          5.9886771941        0.9174426710       -1.9447744019
 H          7.6540208383        0.3405874298       -1.7072707113
  66
        -93.76920506
 C          6.6951070129       -1.8480036940        0.1929966945
 C          6.1521819659       -0.5757489541       -0.4695015566
 C          6.9570511511       -0.2877905213       -1.7349015558
 O          4.7940730461       -0.8411266304       -0.8239575670
 B          3.9743461160       -0.2262904089        0.0778988936
 C          2.4193446583       -0.3718698274        0.0879775773
 C          1.6403828268        0.3403890221        1.0016752743
 C          0.2631171396        0.2690541528        0.9778788685
 C         -0.3879161349       -0.5209448036        0.0311690849
 C         -1.8579378609       -0.5800482784       -0.0256528514
 C         -2.6187019657        0.5367536263        0.0190119508
 C         -2.0352240908        1.8874305010       -0.0567323252
 C         -1.0747849322        2.2036115014       -1.0156062866
 C         -0.5454009592        3.4778560490       -1.0832942321
 C         -0.9669032057        4.4571825335       -0.1987938924
 C         -1.9329071678        4.1574758484        0.7471856248
 C         -2.4689996865        2.8852528831        0.8137053210
 C         -4.0844523535        0.4980205314        0.1474368257
 C         -4.8742748579        1.3376421607       -0.6360109487
 C         -6.2506861644        1.3255966030       -0.5123721867
 C         -6.8596404838        0.4863148680        0.4057914551
 C         -6.0820778167       -0.3384165413        1.2024882006
 C         -4.7061676847       -0.3339189037        1.0766089381
 C         -2.4345108274       -1.9285987545       -0.1472154683
 C         -1.9357993250       -2.9728611421        0.6292510913
 C         -2.4621738678       -4.2458328025        0.5160374185
 C         -3.4831794919       -4.4998432322       -0.3846856587
 C         -3.9705715889       -3.4729826916       -1.1768179400
 C         -3.4515329076       -2.1977999809       -1.0613675817
 C          0.3821988434       -1.2701833055       -0.8570982539
 C          1.7600551857       -1.1880814096       -0.8320418912
 O          4.6655597999        0.5634530112        0.9513769765
 C          6.0281610519        0.6322536199        0.5297830867
 C          6.2089173533        1.9945257040       -0.1521405605
 C          6.9419325880        0.5592737106        1.7509255518
 H          6.5904726623       -2.6735095157       -0.5075983663
 H          7.7432852315       -1.7381022451        0.4556690315
 H          6.1159468157       -2.0883003078        1.0815089940
 H          6.9907433361       -1.1886952552       -2.3428490433
 H          7.9726961149        0.0014070939       -1.4776812901
 H          6.4948115854        0.4972746181       -2.3251530684
 H          2.1377063433        0.9598351238        1.7328806703
 H         -0.3215848496        0.8248651249        1.6968249722
 H         -0.7509050642        1.4463431446       -1.7140832718
 H          0.1990025657        3.7092553783       -1.8309839114
 H         -0.5482946073        5.4514194082       -0.2500323627
 H         -2.2703036054        4.9188988445        1.4356868076
 H         -3.2203512986        2.6516583922        1.5549153021
 H         -4.4002472228        1.9925185416       -1.3532619132
 H         -6.8514880507        1.9749259158       -1.1328173699
 H         -7.9351692799        0.4792882647        0.5043325156
 H         -6.5517583065       -0.9856978630        1.9289592422
 H         -4.1033924135       -0.9696941223        1.7078086311
 H         -1.1391481348       -2.7755306985        1.3323437525
 H         -2.0733482311       -5.0445966767        1.1309452982
 H         -3.8933238319       -5.4950098564       -0.4738489939
 H         -4.7580178211       -3.6685933476       -1.8902965539
 H         -3.8265620808       -1.4032984813       -1.6891780142
 H         -0.1126386426       -1.8997285862       -1.5840939205
 H          2.3495424240       -1.7541826809       -1.5377973302
 H          7.2371202655        2.1441294395       -0.4683363940
 H          5.5437180366        2.0792462779       -1.0084231077
 H          5.9399083589        2.7736688801        0.5577572108
 H          6.7821876619        1.4436639049        2.3627949666
 H          6.7196523097       -0.3121206863        2.3585591906
 H          7.9832304786        0.5298042458        1.4410868573
  66
        -93.76819143
 C          6.5216481512        2.0710828705        0.4830174285
 C          5.9920017587        0.6427847518        0.5961783721
 C          6.6946933279       -0.0636974630        1.7617733327
 O          4.5998085370        0.6840612896        0.9106917435
 B          3.9484682318       -0.2571697685        0.1672574323
 C          2.4095331630       -0.5053483358        0.2564819496
 C          1.6226716953        0.2252813860        1.1488492542
 C          0.2465233110        0.1419536580        1.1223290892
 C         -0.3943451151       -0.6783185363        0.1943380233
 C         -1.8620667125       -0.6867426494        0.0810102688
 C         -2.5663481588        0.4672630334        0.0349334667
 C         -1.9120841192        1.7822035966       -0.0849353275
 C         -0.8968910559        1.9969915935       -1.0155244390
 C         -0.2993675821        3.2372253215       -1.1277121204
 C         -0.7080492360        4.2850380156       -0.3189793090
 C         -1.7293796996        4.0875664358        0.5950718190
 C         -2.3318913715        2.8485468992        0.7073977150
 C         -4.0360214620        0.5072165936        0.0967266030
 C         -4.7467502531        1.3445951667       -0.7613464829
 C         -6.1258059794        1.4079967809       -0.6991882175
 C         -6.8161146340        0.6484264722        0.2307855804
 C         -6.1174324390       -0.1733063980        1.1003559292
 C         -4.7391710949       -0.2450454491        1.0357671571
 C         -2.4960859419       -2.0098700506       -0.0215611719
 C         -2.0790657332       -3.0534643983        0.8024495367
 C         -2.6575777269       -4.3045627074        0.6983636841
 C         -3.6493737339       -4.5379430746       -0.2398072375
 C         -4.0551978406       -3.5126747476       -1.0786687302
 C         -3.4841961998       -2.2593057497       -0.9727427496
 C          0.3843510273       -1.4731020488       -0.6452060817
 C          1.7614854970       -1.3778388399       -0.6189469486
 O          4.7755463854       -0.8729224347       -0.7284368164
 C          6.0283593685       -0.1868024556       -0.7394093903
 C          7.1662563262       -1.1992565694       -0.8418630029
 C          6.0277171858        0.6981370496       -1.9928358859
 H          6.4722598876        2.5431714924        1.4612446037
 H          7.5550317085        2.0659965012        0.1466494286
 H          5.9195136496        2.6594411611       -0.2024388035
 H          6.4768390727        0.4817038233        2.6774538858
 H          7.7704319736       -0.0898005704        1.6135965233
 H          6.3142087578       -1.0759627157        1.8764989113
 H          2.1122369095        0.8809678928        1.8531015191
 H         -0.3461049522        0.7234752851        1.8139303460
 H         -0.5832896132        1.1874097550       -1.6577926117
 H          0.4876845283        3.3882373623       -1.8519461496
 H         -0.2363105022        5.2527339231       -0.4046193235
 H         -2.0572774886        4.9027798595        1.2239610105
 H         -3.1252579960        2.6950740839        1.4252893752
 H         -4.2087963071        1.9379030640       -1.4870581700
 H         -6.6648802968        2.0546094866       -1.3765579210
 H         -7.8937050171        0.7007857069        0.2814878359
 H         -6.6509636756       -0.7590621733        1.8349085632
 H         -4.1973919600       -0.8789170505        1.7218828811
 H         -1.3049532315       -2.8725488050        1.5345496742
 H         -2.3327425623       -5.1027537596        1.3501030324
 H         -4.0998242747       -5.5161394428       -0.3221574502
 H         -4.8182016988       -3.6928052203       -1.8222178406
 H         -3.7931258565       -1.4676405474       -1.6389565502
 H         -0.1031462607       -2.1360552526       -1.3470290716
 H          2.3584281470       -1.9681828925       -1.2981416269
 H          8.1258107778       -0.6941907634       -0.7673155094
 H          7.0929935509       -1.9549796880       -0.0661173437
 H          7.1061521603       -1.6999776654       -1.8051682174
 H          5.8753482585        0.0627963260       -2.8625462355
 H          5.2059288326        1.4093102763       -1.9513690998
 H          6.9686325376        1.2289738888       -2.1032874561
  66
        -93.76800866
 C          7.0296916804        1.1042439363       -1.2033047020
 C          6.1210096486        0.6299583371       -0.0728265826
 C          6.3679522241        1.4925633636        1.1714646928
 O          4.7537104734        0.8224568375       -0.4429882884
 B          4.0271733712       -0.2356481791        0.0233608205
 C          2.4645239783       -0.2987990230        0.0091663321
 C          1.7749946477       -1.0787037084        0.9379820446
 C          0.3958170707       -1.1185309678        0.9566872564
 C         -0.3521048257       -0.3853887829        0.0342360740
 C         -1.8193855830       -0.4631773044        0.0622259858
 C         -2.6308125226        0.5931521379       -0.1695693089
 C         -2.1439838181        1.9764239689       -0.3036559029
 C         -2.6308474857        2.7846400669       -1.3294677786
 C         -2.2085337228        4.0947682534       -1.4528876640
 C         -1.3061928573        4.6226408098       -0.5445422842
 C         -0.8296382883        3.8320383343        0.4886643853
 C         -1.2437148541        2.5194212371        0.6106313855
 C         -4.0918105261        0.4435496880       -0.2896044991
 C         -4.6561331468       -0.5605159053       -1.0738044143
 C         -6.0286470034       -0.6809378846       -1.1777730247
 C         -6.8605237280        0.1988185657       -0.5046526449
 C         -6.3096544411        1.2116086923        0.2627893545
 C         -4.9371921973        1.3383157576        0.3640193443
 C         -2.3689896245       -1.7946551767        0.3827460415
 C         -1.8968209498       -2.9269827978       -0.2767235442
 C         -2.4033126113       -4.1770597901        0.0256428149
 C         -3.3758924261       -4.3170219497        1.0017577661
 C         -3.8361980518       -3.1989849152        1.6776832222
 C         -3.3381697767       -1.9470025717        1.3715196949
 C          0.3308085583        0.3709049555       -0.9185428119
 C          1.7101313561        0.4216148409       -0.9179949767
 O          4.8210379532       -1.2270949980        0.5254750629
 C          6.1841461657       -0.9074877706        0.2373985800
 C          7.0612571162       -1.2956964031        1.4248167693
 C          6.5891499897       -1.7406360718       -0.9850415822
 H          6.9258093622        2.1813204792       -1.3099776576
 H          8.0664387327        0.8716050978       -0.9742912276
 H          6.7558768686        0.6454369829       -2.1481454879
 H          6.1171641864        2.5238704276        0.9332603188
 H          7.4070191706        1.4436365637        1.4841531597
 H          5.7229963190        1.1707529857        1.9861264461
 H          2.3405677109       -1.6549596538        1.6550460916
 H         -0.1168346623       -1.7151987869        1.6986242643
 H         -3.3357031171        2.3730549258       -2.0380582515
 H         -2.5869836413        4.7072764671       -2.2586467043
 H         -0.9792266835        5.6476126307       -0.6390829488
 H         -0.1333504034        4.2429220523        1.2049287208
 H         -0.8774287710        1.9084015785        1.4224022168
 H         -4.0128785398       -1.2416065468       -1.6104487858
 H         -6.4529588159       -1.4640650618       -1.7893736137
 H         -7.9331428105        0.0996991239       -0.5833407926
 H         -6.9529900920        1.9055248569        0.7844981718
 H         -4.5092602350        2.1262693533        0.9674137274
 H         -1.1367204893       -2.8180448877       -1.0372533171
 H         -2.0367758246       -5.0468103615       -0.5001413888
 H         -3.7694958669       -5.2943335167        1.2394295712
 H         -4.5852858555       -3.3041508646        2.4491482755
 H         -3.6918561291       -1.0783827967        1.9069753924
 H         -0.2274030177        0.9146204554       -1.6666596199
 H          2.2252068974        1.0252880363       -1.6504286653
 H          8.0804461105       -0.9524084183        1.2675341096
 H          6.6772572179       -0.8785736232        2.3505567998
 H          7.0659615630       -2.3787508182        1.5207530393
 H          6.4240543367       -2.7917536507       -0.7586296471
 H          5.9695515973       -1.4807605137       -1.8404597467
 H          7.6366497807       -1.5916454846       -1.2311576115
