  55
  -85.9100231826000       0.390194018850574      !
 O         -5.1009408259        0.1296223370       -0.1403347854
 C         -3.8825243013        0.0861357773       -0.0620167454
 C         -3.1479535434       -1.1943553105       -0.0713304978
 C         -3.8858549718       -2.3796093422       -0.1303313988
 C         -3.2551979036       -3.6038534594       -0.1422198733
 C         -1.8684189176       -3.6585036285       -0.0972115960
 C         -1.1307916053       -2.4926335967       -0.0394354917
 C         -1.7558498149       -1.2503381920       -0.0232508139
 C         -0.8897174854       -0.0163988762        0.0328433269
 C         -1.6737298598        1.2712417991        0.1052983816
 C         -0.9698919198        2.4658133407        0.2148122101
 C         -1.6303280720        3.6770028088        0.2735051305
 C         -3.0172878968        3.7173888072        0.2209346412
 C         -3.7255527597        2.5414786478        0.1106874804
 C         -3.0662091431        1.3107588114        0.0522578513
 C         -0.0615429821        0.0250887838       -1.2390977779
 C         -0.7260167601        0.0736184223       -2.4544267902
 C         -0.0318822865        0.1180012686       -3.6492497249
 C          1.3526113511        0.1127545331       -3.6263792734
 C          2.0297798147        0.0645445538       -2.4252176315
 C          1.3348322102        0.0219098681       -1.2129945851
 N          2.0255300270       -0.0267229741       -0.0139259160
 C          3.4494576029       -0.0097283476       -0.0352308077
 C          4.1262532842        1.2029574999       -0.0423956457
 C          5.5097584691        1.2184496552       -0.0614439084
 C          6.2177349076        0.0280856651       -0.0722979000
 C          5.5423497878       -1.1812281061       -0.0652176627
 C          4.1589874726       -1.2036796706       -0.0472683519
 C          1.3732581391       -0.1025384005        1.2050441820
 C          2.1048925344       -0.1724181711        2.3941932859
 C          1.4642606538       -0.2493602631        3.6137933919
 C          0.0811004341       -0.2568595322        3.6786693959
 C         -0.6488924905       -0.1833814155        2.5069191351
 C         -0.0216921031       -0.1060916887        1.2733607582
 H         -4.9622203536       -2.3018315604       -0.1661839635
 H         -3.8339186738       -4.5140527911       -0.1870985187
 H         -1.3647988575       -4.6138495110       -0.1075763695
 H         -0.0520116512       -2.5379128492       -0.0049727008
 H          0.1091329403        2.4381852760        0.2550491236
 H         -1.0659882322        4.5937922496        0.3602451023
 H         -3.5357547818        4.6632101977        0.2658710411
 H         -4.8044293690        2.5376754909        0.0667794930
 H         -1.8062747940        0.0772619098       -2.4561586107
 H         -0.5652318117        0.1558264871       -4.5862002157
 H          1.9118382955        0.1450706045       -4.5493446407
 H          3.1089446339        0.0587644610       -2.4200017849
 H          3.5633605938        2.1248185590       -0.0343767968
 H          6.0350189768        2.1616544479       -0.0672385250
 H          7.2969738671        0.0427108586       -0.0863141840
 H          6.0932435592       -2.1096622281       -0.0740029691
 H          3.6212090524       -2.1404061835       -0.0410585476
 H          3.1834374990       -0.1649132118        2.3566328851
 H          2.0513086979       -0.3035791795        4.5183985010
 H         -0.4232759801       -0.3165474980        4.6304071106
 H         -1.7287690605       -0.1839808993        2.5401605644
  55
  -85.9096966509000       0.276195773663703      !
 O         -5.0850735201        0.2744256478        0.2048403661
 C         -3.8711156082        0.1690007104        0.1163626226
 C         -3.2120944006       -1.1457259187       -0.0130064334
 C         -4.0173900965       -2.2864757454       -0.0673382457
 C         -3.4587920199       -3.5394529984       -0.1894193463
 C         -2.0778031359       -3.6683304124       -0.2575185872
 C         -1.2738691791       -2.5468826882       -0.2030258205
 C         -1.8257733810       -1.2759574984       -0.0824648345
 C         -0.8892518084       -0.0957952908       -0.0209798253
 C         -1.5968112467        1.2361062134        0.0597507002
 C         -0.8258291393        2.3937177596        0.0780485500
 C         -1.4153958148        3.6396519105        0.1591910710
 C         -2.7976093539        3.7533060608        0.2262600215
 C         -3.5718933435        2.6145815931        0.2115234912
 C         -2.9845526623        1.3492431228        0.1285299449
 C         -0.0414924845       -0.0943690045       -1.2786676417
 C         -0.6850338561       -0.1076503077       -2.5061260774
 C          0.0292050248       -0.0900082823       -3.6897853419
 C          1.4127984584       -0.0606216832       -3.6431951533
 C          2.0694415047       -0.0462462605       -2.4297403417
 C          1.3537447348       -0.0574502026       -1.2290204704
 N          2.0230500974       -0.0473735623       -0.0163142750
 C          3.4395473593        0.0916956413       -0.0139741852
 C          4.0037348293        1.3551748959       -0.1337249273
 C          5.3799648964        1.4979808354       -0.1339909976
 C          6.1936610125        0.3838810668       -0.0124773968
 C          5.6310679135       -0.8762927598        0.1073747737
 C          4.2555709460       -1.0262518741        0.1051804734
 C          1.3529819432       -0.1778442622        1.1891520787
 C          2.0646345139       -0.2499411994        2.3900872954
 C          1.4061467364       -0.3884537379        3.5947101919
 C          0.0236759254       -0.4540600311        3.6329760612
 C         -0.6878615395       -0.3684340110        2.4506914141
 C         -0.0422959980       -0.2304096821        1.2320570832
 H         -5.0871811149       -2.1512271137       -0.0111734568
 H         -4.0893421032       -4.4146521483       -0.2317737700
 H         -1.6305073315       -4.6466918096       -0.3526083384
 H         -0.1996188044       -2.6490627953       -0.2558868894
 H          0.2495886616        2.3110802863        0.0280129536
 H         -0.7991154963        4.5265979318        0.1713840253
 H         -3.2606437843        4.7263838786        0.2898589739
 H         -4.6490934974        2.6673469823        0.2631645124
 H         -1.7649575980       -0.1301586842       -2.5256208536
 H         -0.4878918273       -0.0997304227       -4.6364952327
 H          1.9875951608       -0.0504090119       -4.5570671691
 H          3.1482375171       -0.0286844017       -2.4061045733
 H          3.3596823387        2.2171173998       -0.2298111507
 H          5.8165318759        2.4809743295       -0.2274887073
 H          7.2670703533        0.4975832997       -0.0117306675
 H          6.2644537985       -1.7455908753        0.2011798030
 H          3.8056527777       -2.0039456587        0.1974557664
 H          3.1420517686       -0.1931007301        2.3750554121
 H          1.9787466855       -0.4433599949        4.5083556004
 H         -0.4951330335       -0.5622893654        4.5726048750
 H         -1.7673912338       -0.4035096455        2.4659416432
  55
  -85.9092811562000       0.177938074006584      !
 O         -5.0606364803        0.3675382448        0.2928632716
 C         -3.8547465246        0.2220261458        0.1612245590
 C         -3.2432172221       -1.1145962429        0.0250713548
 C         -4.0869509622       -2.2281341618       -0.0036823227
 C         -3.5729009805       -3.4997620001       -0.1279805039
 C         -2.1985905798       -3.6750345186       -0.2226419881
 C         -1.3568690678       -2.5806593880       -0.1939630663
 C         -1.8637095505       -1.2910613095       -0.0735871386
 C         -0.8877118201       -0.1426576975       -0.0373238347
 C         -1.5502753736        1.2141856800        0.0196816044
 C         -0.7443077923        2.3474739081       -0.0130074311
 C         -1.2928010248        3.6129269226        0.0529199590
 C         -2.6681656637        3.7718269411        0.1563412531
 C         -3.4769349882        2.6578105006        0.1916344299
 C         -2.9314551891        1.3730582123        0.1236917591
 C         -0.0378925116       -0.1888357213       -1.2928721633
 C         -0.6799365528       -0.2485732511       -2.5197320801
 C          0.0339088488       -0.2368233623       -3.7037302372
 C          1.4148508086       -0.1485119571       -3.6580186176
 C          2.0703549477       -0.0877825192       -2.4452223021
 C          1.3567781438       -0.1189415865       -1.2438597840
 N          2.0209457926       -0.0701852368       -0.0286204235
 C          3.4272208057        0.1452681667       -0.0077388544
 C          3.9170729926        1.4148477943        0.2710794507
 C          5.2823034121        1.6374257315        0.2948075801
 C          6.1597557231        0.5970701223        0.0383825489
 C          5.6717203761       -0.6693842236       -0.2387228790
 C          4.3074318561       -0.8994589748       -0.2605055552
 C          1.3500504035       -0.2172366431        1.1747076049
 C          2.0660245491       -0.3275211027        2.3700791646
 C          1.4104487564       -0.4810571334        3.5743642182
 C          0.0274597942       -0.5330566200        3.6157490310
 C         -0.6873129382       -0.4320291641        2.4365579967
 C         -0.0444743802       -0.2786512487        1.2183731499
 H         -5.1501384922       -2.0568687978        0.0750418636
 H         -4.2328581017       -4.3537591621       -0.1504734001
 H         -1.7860458089       -4.6684703599       -0.3185490060
 H         -0.2877683964       -2.7188134851       -0.2665799300
 H          0.3258788952        2.2319333901       -0.0948371698
 H         -0.6493165313        4.4799948235        0.0238989744
 H         -3.0990393555        4.7601846634        0.2091722713
 H         -4.5500713028        2.7454187592        0.2721398483
 H         -1.7589595683       -0.2980972148       -2.5389325983
 H         -0.4821556733       -0.2848485525       -4.6498351719
 H          1.9888290278       -0.1246973059       -4.5721479891
 H          3.1463328361       -0.0106923095       -2.4246935775
 H          3.2238871532        2.2185788155        0.4726718342
 H          5.6603450375        2.6251569638        0.5117332794
 H          7.2245802129        0.7730954519        0.0552729627
 H          6.3549567679       -1.4816969210       -0.4363659342
 H          3.9160786894       -1.8834170488       -0.4738564411
 H          3.1445030694       -0.2950559126        2.3488238706
 H          1.9853215762       -0.5623897928        4.4845734269
 H         -0.4894664236       -0.6502127929        4.5553612936
 H         -1.7666536034       -0.4679515396        2.4549849859
  55
  -85.9083627448000       6.732807994621226E-002 !
 O         -4.9559234376        0.5599650925        0.5867099756
 C         -3.7866307055        0.3341920179        0.3146649371
 C         -3.2928078209       -1.0372948748        0.0823949270
 C         -4.2208147740       -2.0818263668        0.0754068961
 C         -3.8163503748       -3.3829598534       -0.1254393363
 C         -2.4685427295       -3.6573140963       -0.3156495981
 C         -1.5439172566       -2.6312872317       -0.3089356467
 C         -1.9405464912       -1.3117545056       -0.1191212054
 C         -0.8797925060       -0.2413829652       -0.0936217842
 C         -1.4404599202        1.1628871786       -0.0380652565
 C         -0.5702906663        2.2401502291       -0.1701119694
 C         -1.0264950845        3.5406396026       -0.0809022636
 C         -2.3715128873        3.7941120079        0.1498750820
 C         -3.2443586976        2.7368982621        0.2802182402
 C         -2.7931263918        1.4178471597        0.1862549093
 C         -0.0178532291       -0.3565409077       -1.3356924576
 C         -0.6417643509       -0.4856695742       -2.5665665869
 C          0.0872497255       -0.5074988741       -3.7413242034
 C          1.4641022440       -0.3759505426       -3.6838198297
 C          2.1024636449       -0.2471492728       -2.4669917995
 C          1.3752189196       -0.2518063853       -1.2740957947
 N          2.0185475060       -0.1426956165       -0.0499994886
 C          3.3816192394        0.2556293995        0.0075736108
 C          3.6834059314        1.5564716720        0.3933817708
 C          5.0012635331        1.9702643736        0.4597695935
 C          6.0216108591        1.0899085559        0.1398300694
 C          5.7225417870       -0.2080796387       -0.2398963702
 C          4.4057940544       -0.6300095332       -0.3039678694
 C          1.3371335277       -0.3331986315        1.1424231257
 C          2.0478463171       -0.4735667057        2.3373849074
 C          1.3874725188       -0.6788110017        3.5311351524
 C          0.0052601461       -0.7549171288        3.5594115818
 C         -0.7042384977       -0.6267713724        2.3794072690
 C         -0.0560135531       -0.4222076554        1.1716952111
 H         -5.2596891306       -1.8338791744        0.2337391098
 H         -4.5408130027       -4.1832634843       -0.1313270917
 H         -2.1410991735       -4.6750011820       -0.4687175999
 H         -0.4956144451       -2.8476434208       -0.4554353925
 H          0.4774457877        2.0579715776       -0.3513968947
 H         -0.3324490510        4.3612980093       -0.1897682187
 H         -2.7293487932        4.8098745249        0.2236726337
 H         -4.2977890455        2.8970032744        0.4550145210
 H         -1.7191016051       -0.5586998580       -2.5980291345
 H         -0.4152856605       -0.6096182119       -4.6904107950
 H          2.0484045214       -0.3713955645       -4.5917013188
 H          3.1747802965       -0.1334198281       -2.4387246349
 H          2.8805293511        2.2334226329        0.6480625285
 H          5.2305073831        2.9817710783        0.7597720493
 H          7.0497897632        1.4147231060        0.1896730286
 H          6.5173906895       -0.8968929674       -0.4840851915
 H          4.1647344942       -1.6428921565       -0.5918647486
 H          3.1258257164       -0.4233748854        2.3226530751
 H          1.9570416968       -0.7824098592        4.4423755374
 H         -0.5164563238       -0.9110174547        4.4907066947
 H         -1.7826414639       -0.6782541334        2.3932313490
  55
  -85.9080184797000       4.677167722241832E-002 !
 O         -5.0341751340        0.4987777934       -0.2163934867
 C         -3.8353815167        0.2966316207       -0.0964276411
 C         -3.2726807389       -1.0679058501       -0.0999399423
 C         -4.1566093305       -2.1478909554       -0.1717312479
 C         -3.6882904267       -3.4430115931       -0.1842659841
 C         -2.3201907825       -3.6753815139       -0.1298352047
 C         -1.4391055238       -2.6142906183       -0.0590927395
 C         -1.8996311819       -1.3019822448       -0.0381619226
 C         -0.8824448432       -0.1916084201        0.0311350357
 C         -1.4958459948        1.1866726567        0.1300137729
 C         -0.6515500850        2.2817415694        0.2824889375
 C         -1.1570977006        3.5632909473        0.3764399283
 C         -2.5271616011        3.7786306565        0.3152320163
 C         -3.3735486313        2.7037838334        0.1582236884
 C         -2.8716971246        1.4029389694        0.0648354243
 C         -0.0530684966       -0.2310214108       -1.2395665958
 C         -0.7043225107       -0.2945417269       -2.4615928422
 C          0.0029251059       -0.3208182564       -3.6492190209
 C          1.3868958344       -0.2932612113       -3.6127761152
 C          2.0499799952       -0.2260793914       -2.4049269363
 C          1.3415066202       -0.1777810449       -1.2008410251
 N          2.0237830940       -0.1111634299        0.0054293226
 C          3.4094868285        0.2000139251       -0.0215658843
 C          3.8042677594        1.4888226961       -0.3619932155
 C          5.1481448243        1.8112442932       -0.4076177007
 C          6.1025779139        0.8529024726       -0.1086723846
 C          5.7108558927       -0.4315306956        0.2303041124
 C          4.3677451872       -0.7629726992        0.2703397679
 C          1.3715257121       -0.2934663996        1.2161655243
 C          2.0895390141       -0.3659460368        2.4129236044
 C          1.4429912610       -0.5703636361        3.6148919397
 C          0.0655085563       -0.7019118071        3.6557826301
 C         -0.6549785975       -0.5989638209        2.4804956427
 C         -0.0220854940       -0.3916788611        1.2648982753
 H         -5.2135770272       -1.9318054019       -0.2174378843
 H         -4.3788860869       -4.2710296497       -0.2384759541
 H         -1.9433784350       -4.6873501046       -0.1433386793
 H         -0.3749087122       -2.7965735922       -0.0179348842
 H          0.4148907795        2.1248710029        0.3352944647
 H         -0.4836310325        4.3988209152        0.4994990769
 H         -2.9245838498        4.7795111765        0.3899817977
 H         -4.4439346852        2.8351347868        0.1050315163
 H         -1.7839388377       -0.3200970677       -2.4761572310
 H         -0.5202008739       -0.3666697575       -4.5915751644
 H          1.9564014410       -0.3274036825       -4.5293184716
 H          3.1289102270       -0.2150746578       -2.3877722908
 H          3.0526273017        2.2279023057       -0.5993312395
 H          5.4498583816        2.8129348234       -0.6745662632
 H          7.1510994262        1.1067918278       -0.1428798040
 H          6.4535076943       -1.1812560257        0.4587047050
 H          4.0549888462       -1.7657334904        0.5224410050
 H          3.1620458793       -0.2518253408        2.4007827745
 H          2.0216519035       -0.6247753544        4.5247502199
 H         -0.4433853003       -0.8657205136        4.5927462629
 H         -1.7327768442       -0.6692908946        2.4991432380
  55
  -85.9071609631000       1.887537551089476E-002 !
 O         -4.8705458290        0.6447628998        0.7717409695
 C         -3.7334474910        0.3861123117        0.4087601110
 C         -3.3047880699       -0.9955809179        0.1160630961
 C         -4.2732464118       -2.0023503857        0.1149209339
 C         -3.9279497451       -3.3117936841       -0.1364611327
 C         -2.5990989568       -3.6323937777       -0.3798144431
 C         -1.6343659366       -2.6437217112       -0.3774131754
 C         -1.9721719165       -1.3149901872       -0.1432591048
 C         -0.8722492365       -0.2845525113       -0.1201277476
 C         -1.3845596302        1.1395322492       -0.0697120350
 C         -0.4929353614        2.1899219669       -0.2612391545
 C         -0.9073285217        3.5043148021       -0.1679351267
 C         -2.2307215141        3.8004275973        0.1259875074
 C         -3.1251607750        2.7704680113        0.3151630572
 C         -2.7163809570        1.4381033216        0.2184951907
 C         -0.0038139339       -0.4363070361       -1.3534912449
 C         -0.6192320785       -0.5956147952       -2.5852701795
 C          0.1171203885       -0.6431126932       -3.7545490399
 C          1.4925130854       -0.5010421296       -3.6917704082
 C          2.1225120119       -0.3399852482       -2.4743551523
 C          1.3891093917       -0.3249320599       -1.2856613968
 N          2.0218186252       -0.1885501714       -0.0570110400
 C          3.3515249520        0.3031388431        0.0200066259
 C          3.5549644104        1.5975045541        0.4868856479
 C          4.8352879952        2.1121912777        0.5676834296
 C          5.9187690207        1.3405897710        0.1811346571
 C          5.7194897408        0.0475204635       -0.2723286585
 C          4.4405467684       -0.4768771195       -0.3488593845
 C          1.3319997429       -0.3953736374        1.1290218667
 C          2.0397892696       -0.5573999897        2.3227761377
 C          1.3763571617       -0.7831423595        3.5109404839
 C         -0.0060607002       -0.8591061376        3.5329354616
 C         -0.7126156610       -0.7119981067        2.3533153135
 C         -0.0608218741       -0.4873369371        1.1509698720
 H         -5.2948939900       -1.7194338538        0.3199551839
 H         -4.6831904313       -4.0830961435       -0.1380426897
 H         -2.3170940579       -4.6574382247       -0.5694361272
 H         -0.6009061838       -2.8974612458       -0.5636188826
 H          0.5384150416        1.9790749809       -0.4952844194
 H         -0.1962520013        4.3023556746       -0.3247683278
 H         -2.5550252391        4.8270308553        0.2038975135
 H         -4.1630593313        2.9631995430        0.5416168285
 H         -1.6961026747       -0.6715315700       -2.6226724391
 H         -0.3789465016       -0.7712516776       -4.7038652945
 H          2.0825447555       -0.5135587581       -4.5958218640
 H          3.1928190607       -0.2122487542       -2.4450000045
 H          2.7040500813        2.1896967705        0.7919322169
 H          4.9858780063        3.1183261711        0.9292495198
 H          6.9176844348        1.7452822462        0.2392039799
 H          6.5638720924       -0.5592015000       -0.5634567605
 H          4.2819649548       -1.4908819366       -0.6856390503
 H          3.1179034366       -0.5076882350        2.3099027387
 H          1.9427455631       -0.9037896621        4.4220324961
 H         -0.5309005232       -1.0307577297        4.4597578518
 H         -1.7907759626       -0.7636028887        2.3656922358
  55
  -85.9067697126000       1.247640086005519E-002 !
 O         -4.7882907564        0.6645262965        0.9654262292
 C         -3.6867863822        0.3993835927        0.5096971316
 C         -3.3035821884       -0.9795072223        0.1477311267
 C         -4.2949763963       -1.9631782255        0.1476971117
 C         -3.9903747963       -3.2695594603       -0.1656912119
 C         -2.6789704435       -3.6102654257       -0.4680907414
 C         -1.6909195237       -2.6445147304       -0.4642301887
 C         -1.9889729774       -1.3173718452       -0.1744799390
 C         -0.8693586748       -0.3079901622       -0.1484612300
 C         -1.3600076177        1.1247597820       -0.0973154253
 C         -0.4709683626        2.1646000816       -0.3484541410
 C         -0.8675180988        3.4839513293       -0.2441233758
 C         -2.1683651092        3.7962636432        0.1235313533
 C         -3.0606335926        2.7767927871        0.3722111015
 C         -2.6707154245        1.4401882905        0.2623691609
 C          0.0086449740       -0.4746798213       -1.3725429906
 C         -0.5937884636       -0.6456568393       -2.6092726403
 C          0.1544861457       -0.7027312648       -3.7706397274
 C          1.5288748577       -0.5569326815       -3.6959210330
 C          2.1461754036       -0.3814566101       -2.4739878042
 C          1.4007173169       -0.3569193201       -1.2930466880
 N          2.0200690275       -0.2032690791       -0.0596333199
 C          3.3342073550        0.3265614571        0.0291991576
 C          3.4930500585        1.6279316629        0.4945160840
 C          4.7559253675        2.1822728831        0.5861964407
 C          5.8665182696        1.4435326429        0.2122975124
 C          5.7117199158        0.1434534874       -0.2384713330
 C          4.4504019892       -0.4208154485       -0.3255744714
 C          1.3217132961       -0.4155034626        1.1202637630
 C          2.0225467858       -0.5733493076        2.3185563385
 C          1.3529554185       -0.8083108010        3.5013748767
 C         -0.0287348476       -0.8975646701        3.5122305795
 C         -0.7284836066       -0.7522379362        2.3281985012
 C         -0.0706001061       -0.5181335749        1.1310212759
 H         -5.3012248585       -1.6656112015        0.4022687012
 H         -4.7634068917       -4.0229889065       -0.1687526275
 H         -2.4281363690       -4.6335554420       -0.7050955320
 H         -0.6712815643       -2.9158971194       -0.6956156428
 H          0.5432402735        1.9436825627       -0.6405720906
 H         -0.1592177665        4.2730731706       -0.4509903135
 H         -2.4779616513        4.8267380078        0.2096274082
 H         -4.0823535872        2.9817813807        0.6546296540
 H         -1.6701355718       -0.7221788189       -2.6576452548
 H         -0.3320624355       -0.8394834278       -4.7236859401
 H          2.1277219703       -0.5759739722       -4.5940561458
 H          3.2154744565       -0.2485411342       -2.4351807859
 H          2.6208506907        2.1939787956        0.7889791269
 H          4.8717080533        3.1937076443        0.9458996082
 H          6.8518496505        1.8791266691        0.2787174571
 H          6.5773586696       -0.4378441948       -0.5188427040
 H          4.3272611772       -1.4409910391       -0.6585654914
 H          3.1001804802       -0.5127687578        2.3128463477
 H          1.9134948046       -0.9256648572        4.4164970712
 H         -0.5591389925       -1.0766342688        4.4344955673
 H         -1.8060394662       -0.8113030663        2.3360016381
  55
  -85.9065812467000       1.022059993955806E-002 !
 O         -4.8024038337       -0.5408637598       -0.9195478428
 C         -3.6928498608       -0.3038279384       -0.4679961458
 C         -2.6965563688       -1.3678529338       -0.2401913209
 C         -3.1151232022       -2.6946631077       -0.3619926269
 C         -2.2438280975       -3.7353224948       -0.1271085893
 C         -0.9359408836       -3.4541433625        0.2404071927
 C         -0.5108450276       -2.1445459184        0.3557478369
 C         -1.3776862849       -1.0835227674        0.1160394707
 C         -0.8568171495        0.3385982230        0.1722849683
 C         -1.9553407202        1.3699544200        0.2227769536
 C         -1.6278951353        2.6877263273        0.5233713613
 C         -2.5961774989        3.6731025506        0.5463523527
 C         -3.9169481015        3.3621792448        0.2526752014
 C         -4.2506910558        2.0656645131       -0.0718096565
 C         -3.2793335985        1.0624066780       -0.0916147883
 C         -0.0748752380        0.5425822980       -1.1189350036
 C         -0.7445314202        0.8124531712       -2.3019834549
 C         -0.0597417146        0.9525526874       -3.4953736160
 C          1.3185653013        0.8210808932       -3.5089164124
 C          1.9996558582        0.5502291548       -2.3404561897
 C          1.3136635461        0.3981873511       -1.1328961360
 N          2.0248257664        0.1510724482        0.0326074540
 C          3.3153257224       -0.4282942595       -0.0854273819
 C          4.4667385857        0.2687125978        0.2591020171
 C          5.7026455209       -0.3442208661        0.1411710624
 C          5.7973332170       -1.6426426470       -0.3303702653
 C          4.6515330581       -2.3309533932       -0.6941822076
 C          3.4138528795       -1.7281029058       -0.5716952040
 C          1.4323759403        0.3177668688        1.2775866254
 C          2.1987701585        0.3143904135        2.4451932756
 C          1.6085588454        0.5036147569        3.6784261079
 C          0.2408068909        0.6910009466        3.7776989052
 C         -0.5292329136        0.6609897504        2.6295584317
 C          0.0458926270        0.4770134462        1.3817701231
 H         -4.1419616548       -2.8750756988       -0.6426118639
 H         -2.5752667922       -4.7580952769       -0.2232617338
 H         -0.2440291616       -4.2599982888        0.4381565536
 H          0.5083832889       -1.9489763175        0.6482330803
 H         -0.6009021719        2.9362290656        0.7477939222
 H         -2.3224184331        4.6886874933        0.7910193699
 H         -4.6743941526        4.1311011457        0.2702421021
 H         -5.2648315156        1.7913251177       -0.3211366479
 H         -1.8197007040        0.9043506675       -2.2919681810
 H         -0.5994205098        1.1595861231       -4.4063467651
 H          1.8672423642        0.9323241953       -4.4319504777
 H          3.0748269342        0.4562903705       -2.3531076310
 H          4.3912732829        1.2888419442        0.6060958195
 H          6.5958176404        0.1983942215        0.4126764908
 H          6.7631470268       -2.1158393404       -0.4214387723
 H          4.7201768989       -3.3405163168       -1.0708138550
 H          2.5146328349       -2.2542309211       -0.8587579815
 H          3.2625935808        0.1488132216        2.3870575760
 H          2.2232192131        0.5007392265        4.5660277406
 H         -0.2245650831        0.8387405604        4.7396421622
 H         -1.6017648470        0.7692607026        2.6976141874
