  106
  -161.741912246000       0.368358389446861      !
 C         -6.5295622697        2.2373994490       -4.9968022675
 C         -5.6069341921        3.1076558293       -4.4415420842
 C         -4.9333729328        2.7597661328       -3.2852178665
 C         -5.1812053127        1.5400400142       -2.6622683535
 C         -4.4548189912        1.1824974187       -1.4303811333
 C         -3.0702657475        1.2866499955       -1.4086415214
 C         -2.3387885685        0.9505157538       -0.2795247986
 C         -0.8751051447        1.1219518046       -0.2759714676
 C         -0.0881842298        0.4982959070       -1.2387221219
 C          1.2872438660        0.6090267186       -1.2023187752
 C          1.9029712746        1.3680460935       -0.2099603530
 C          3.3524911535        1.4731345475       -0.1154233121
 N          4.0078592408        2.5905180931        0.0499620815
 C          5.3257211330        2.2506872212        0.0680243439
 C          6.4476128575        3.1186237665        0.1722183695
 C          6.2848174375        4.5047656593        0.2662230295
 C          7.3808139335        5.3284016373        0.3237334960
 C          8.6579762121        4.7720145098        0.2842239574
 C          8.8294225682        3.4102303911        0.1995942906
 C          7.7345140922        2.5338793938        0.1480218125
 C          7.8813637744        1.0897219181        0.0951092029
 C          9.1405152910        0.4757699352        0.1575554762
 C          9.2870053773       -0.8910949593        0.1576691160
 C          8.1655634840       -1.7134239341        0.1169164514
 C          6.9143710561       -1.1526720282        0.0460077309
 C          6.7450068705        0.2389309349        0.0081582036
 C          5.4728439659        0.8721539642       -0.0728169828
 N          4.1917559925        0.3818772482       -0.2011301411
 C          3.7460405712       -0.9345148663       -0.4081632834
 C          2.8342534485       -1.4994849148        0.4775386422
 C          2.3469253613       -2.7695615771        0.2442246367
 C          2.7637058776       -3.5017894575       -0.8656534342
 C          2.2472628645       -4.8535229396       -1.1057255209
 C          0.9069151226       -5.1731390508       -0.8945144906
 C          0.4724129839       -6.4634282319       -1.1392934707
 C          1.3944339930       -7.3956810368       -1.5921160893
 N          2.6698666109       -7.1101335500       -1.7900878076
 C          3.0812866247       -5.8807706131       -1.5522218340
 C          3.6814133684       -2.9271659350       -1.7441169699
 C          4.1624286177       -1.6523549936       -1.5261706323
 C          1.1131303006        2.0467814693        0.7153643110
 C         -0.2588745424        1.9146774958        0.6889340606
 C         -3.0024187621        0.4752145354        0.8566417842
 C         -2.2243336555        0.0879303015        2.0503504089
 C         -1.2047906996       -0.8541428798        1.9458394264
 C         -0.4669627124       -1.2140684171        3.0575718562
 C         -0.7341448808       -0.6370096873        4.2875052267
 C         -1.7451812682        0.3020224895        4.3997530350
 C         -2.4865070087        0.6620250146        3.2899949065
 C         -4.3959135788        0.3668835418        0.8471006473
 C         -5.0998625282       -0.1335000785        2.0465221231
 C         -4.8030615524       -1.3911980180        2.5614552228
 C         -5.4622911387       -1.8630239746        3.6809455369
 C         -6.4229444965       -1.0834459918        4.3024243630
 C         -6.7219986735        0.1707675234        3.7979442357
 C         -6.0666280169        0.6432111729        2.6763352009
 C         -5.1261108747        0.7276186581       -0.2898030754
 C         -6.6004518401        0.6444950193       -0.2822428802
 C         -7.2480073201       -0.5550298294       -0.0045688204
 C         -8.6287327216       -0.6205094897       -0.0028182643
 C         -9.3800601334        0.5104892230       -0.2737611932
 C         -8.7433283682        1.7087056438       -0.5494418867
 C         -7.3629150815        1.7758121702       -0.5560085160
 C         -6.1031382149        0.6674045501       -3.2331229260
 C         -6.7714369408        1.0152516349       -4.3918144979
 H         -7.0565110155        2.5095244346       -5.8994551814
 H         -5.4116260332        4.0610647771       -4.9107156817
 H         -4.2215425990        3.4448361581       -2.8463740913
 H         -2.5510358937        1.6405989082       -2.2879246164
 H         -0.5601587001       -0.0978621175       -2.0070392208
 H          1.8830504253        0.1145734222       -1.9557807043
 H          5.2785937819        4.8938398622        0.2825114561
 H          7.2604285053        6.3994671234        0.3927082554
 H          9.5240199755        5.4172604831        0.3200493724
 H          9.8366968966        3.0260021715        0.1687949576
 H         10.0298579384        1.0820652417        0.2176879070
 H         10.2739286062       -1.3274126820        0.2054840171
 H          8.2772073818       -2.7873296635        0.1458699025
 H          6.0467778555       -1.7937107677        0.0386358824
 H          2.5113277113       -0.9376065882        1.3413984503
 H          1.6504931598       -3.2096719176        0.9423997929
 H          0.2137276793       -4.4124654886       -0.5636685360
 H         -0.5606472333       -6.7381539698       -0.9905881707
 H          1.1039695897       -8.4151560197       -1.8085068974
 H          4.1373089241       -5.7043827068       -1.7101541789
 H          3.9981231716       -3.4745374339       -2.6192059302
 H          4.8608117264       -1.2028373282       -2.2170169265
 H          1.5944700569        2.6613378947        1.4601647903
 H         -0.8648163527        2.4289943518        1.4199934853
 H         -0.9975993624       -1.3097546061        0.9876010963
 H          0.3202592650       -1.9490583378        2.9670862285
 H         -0.1557736563       -0.9179930412        5.1552725204
 H         -1.9568401534        0.7571394608        5.3561937561
 H         -3.2687126291        1.4017425468        3.3795524227
 H         -4.0577493088       -2.0033336276        2.0739000818
 H         -5.2251962403       -2.8425747903        4.0700743717
 H         -6.9371104758       -1.4524151319        5.1776348022
 H         -7.4692478522        0.7840159386        4.2801248601
 H         -6.2969615219        1.6250463198        2.2884349073
 H         -6.6643053639       -1.4412159460        0.1993762356
 H         -9.1204849389       -1.5583654832        0.2111776486
 H        -10.4588941020        0.4582554092       -0.2703441280
 H         -9.3243695289        2.5946833836       -0.7603641023
 H         -6.8672273952        2.7129866272       -0.7654872324
 H         -6.2881526046       -0.2908938859       -2.7708000619
 H         -7.4851943321        0.3294518401       -4.8247107771
  106
  -161.741825182100       0.335937717689346      !
 C         -6.4406555904        2.3063213566       -4.9962567285
 C         -5.5656870091        3.1915134370       -4.3900285654
 C         -4.9071733984        2.8306353704       -3.2292031287
 C         -5.1230869657        1.5824102636       -2.6528927677
 C         -4.4091267720        1.2083649187       -1.4186350358
 C         -3.0289432110        1.3506564186       -1.3689102248
 C         -2.3054287612        0.9935030492       -0.2408373307
 C         -0.8437902921        1.1796036582       -0.2256010493
 C         -0.0587065852        0.5927074329       -1.2131014662
 C          1.3156000826        0.7085823364       -1.1793545415
 C          1.9328319150        1.4367476613       -0.1649905194
 C          3.3846543128        1.5320879843       -0.0853892765
 N          4.0593872359        2.6390465517        0.0665782037
 C          5.3724192044        2.2786987416        0.0536910089
 C          6.5091863447        3.1293646437        0.1354825755
 C          6.3693366925        4.5173529585        0.2406981111
 C          7.4784944475        5.3244471007        0.2782421574
 C          8.7459242955        4.7495144627        0.2064244704
 C          8.8950210334        3.3858422693        0.1099800879
 C          7.7863309689        2.5258655211        0.0788677023
 C          7.9106178829        1.0802347025        0.0131212930
 C          9.1616383047        0.4474932103        0.0403940617
 C          9.2879925402       -0.9211987453        0.0234752996
 C          8.1541418204       -1.7268324789       -0.0014476580
 C          6.9100385763       -1.1474253987       -0.0358278343
 C          6.7602601893        0.2467164248       -0.0524336813
 C          5.4958260934        0.8985484561       -0.0945977039
 N          4.2049516561        0.4281641494       -0.1927414218
 C          3.7230304490       -0.8799341712       -0.3718725834
 C          2.8289189796       -1.4107778636        0.5522055016
 C          2.2926305030       -2.6654956942        0.3470995108
 C          2.6406738513       -3.4166049823       -0.7735831813
 C          2.0644421727       -4.7487292805       -0.9849901756
 C          0.7234353332       -5.0166538537       -0.7135261270
 C          0.2299905701       -6.2904735660       -0.9319895475
 C          1.0951467208       -7.2587245141       -1.4200122606
 N          2.3707416834       -7.0224327053       -1.6747462474
 C          2.8384639677       -5.8085882273       -1.4618235595
 C          3.5443351997       -2.8783406799       -1.6887677276
 C          4.0751079746       -1.6187502755       -1.4981163416
 C          1.1455199144        2.0785397747        0.7875131794
 C         -0.2267416812        1.9403332321        0.7636540978
 C         -2.9738476358        0.4685327084        0.8700544868
 C         -2.2078948656        0.0650529407        2.0662035712
 C         -1.1643438511       -0.8496849999        1.9557770552
 C         -0.4434754037       -1.2273483521        3.0728211161
 C         -0.7513725871       -0.6959713691        4.3136814271
 C         -1.7857044732        0.2165995341        4.4316568033
 C         -2.5099310326        0.5946265978        3.3166569423
 C         -4.3636667532        0.3229529250        0.8326057913
 C         -5.0749343677       -0.2302696926        2.0042432328
 C         -4.7565022511       -1.4944208017        2.4892517441
 C         -5.4227153503       -2.0128169345        3.5837021756
 C         -6.4116072658       -1.2736906378        4.2100234642
 C         -6.7328746895       -0.0135486885        3.7348767320
 C         -6.0710524868        0.5050414751        2.6378200267
 C         -5.0849134972        0.6942563448       -0.3064949997
 C         -6.5545929117        0.5534929780       -0.3314121195
 C         -7.1560854796       -0.6802198868       -0.1045387219
 C         -8.5324146482       -0.8031078308       -0.1318460991
 C         -9.3254426213        0.3039128982       -0.3819021028
 C         -8.7347765133        1.5354895179       -0.6081310085
 C         -7.3585766570        1.6602003461       -0.5855836714
 C         -5.9974101680        0.6956988402       -3.2743682584
 C         -6.6499030811        1.0564714025       -4.4378470587
 H         -6.9552602760        2.5881201236       -5.9027347448
 H         -5.3957362831        4.1665785659       -4.8228697209
 H         -4.2318792374        3.5263387816       -2.7511894820
 H         -2.5057665783        1.7478081430       -2.2271430130
 H         -0.5320553767        0.0203499307       -1.9984155176
 H          1.9106409350        0.2417876018       -1.9507754834
 H          5.3696750133        4.9210577883        0.2820760727
 H          7.3758084539        6.3967645829        0.3565508978
 H          9.6221025029        5.3817195789        0.2264081386
 H          9.8954741966        2.9870354272        0.0538365287
 H         10.0608809557        1.0401620695        0.0863059010
 H         10.2692363783       -1.3720879314        0.0447337480
 H          8.2509760784       -2.8024232973        0.0113669444
 H          6.0330720253       -1.7755284284       -0.0321356514
 H          2.5561848513       -0.8333548423        1.4231489953
 H          1.6100486936       -3.0791062140        1.0743362041
 H          0.0743866373       -4.2293742370       -0.3566991718
 H         -0.8046069810       -6.5256159435       -0.7349813931
 H          0.7578197788       -8.2681037707       -1.6156516108
 H          3.8929537588       -5.6732992932       -1.6656233052
 H          3.8089883547       -3.4405131842       -2.5717007719
 H          4.7603168670       -1.1966528681       -2.2189634107
 H          1.6270470004        2.6694364713        1.5512606909
 H         -0.8311201251        2.4258511816        1.5154002139
 H         -0.9244643128       -1.2695106739        0.9887797928
 H          0.3632762199       -1.9404243419        2.9787421517
 H         -0.1862789312       -0.9918622673        5.1852954639
 H         -2.0296898499        0.6360259164        5.3966529180
 H         -3.3113613431        1.3127314667        3.4113409580
 H         -3.9892021961       -2.0752348646        1.9974299865
 H         -5.1695055910       -2.9975195408        3.9490133179
 H         -6.9303857163       -1.6785937038        5.0663924652
 H         -7.5016898822        0.5686681915        4.2216353624
 H         -6.3176866014        1.4919968972        2.2735132611
 H         -6.5392651331       -1.5473879886        0.0828553075
 H         -8.9878820241       -1.7671138148        0.0425337479
 H        -10.4009546407        0.2068779908       -0.4012427189
 H         -9.3487564871        2.4025662687       -0.8034874433
 H         -6.8989743317        2.6230667972       -0.7577059882
 H         -6.1570886868       -0.2834516195       -2.8478158534
 H         -7.3258693761        0.3591284170       -4.9108363423
  106
  -161.741704630400       0.295703892863794      !
 C         -6.5404705286        2.1446030879       -5.0020555842
 C         -5.6815081578        3.0638557798       -4.4242230202
 C         -4.9920790373        2.7393047698       -3.2703379100
 C         -5.1610826774        1.4938903015       -2.6727698224
 C         -4.4209356956        1.1631645730       -1.4413094579
 C         -3.0435847539        1.3370152720       -1.4136405588
 C         -2.2987686581        1.0254839253       -0.2859593681
 C         -0.8397186283        1.2311808287       -0.2884063996
 C         -0.0525674781        0.6256914514       -1.2630144635
 C          1.3220377916        0.7386949511       -1.2260592826
 C          1.9377613772        1.4792677303       -0.2195109200
 C          3.3887265362        1.5525686736       -0.1131442509
 N          4.0771136423        2.6479446287        0.0613461788
 C          5.3838510336        2.2664778128        0.0865688619
 C          6.5314080014        3.0978358610        0.2079552721
 C          6.4109273785        4.4869531272        0.3208992864
 C          7.5313783706        5.2752109431        0.4003736907
 C          8.7909201648        4.6799548020        0.3632483154
 C          8.9208130188        3.3148339263        0.2589419301
 C          7.7998085789        2.4738035928        0.1852192247
 C          7.9026838863        1.0267446800        0.1124460254
 C          9.1425017811        0.3738387361        0.1647442645
 C          9.2469667218       -0.9968168971        0.1464199247
 C          8.1008717610       -1.7839072848        0.0960685644
 C          6.8673606084       -1.1841840563        0.0335148264
 C          6.7409960012        0.2122418684        0.0147370752
 C          5.4889472665        0.8848186623       -0.0613617266
 N          4.1943506831        0.4354374773       -0.1986933452
 C          3.6989670096       -0.8646149055       -0.3979695409
 C          2.7673191819       -1.3851524335        0.4942970150
 C          2.2147520505       -2.6283723738        0.2632445323
 C          2.5858229279       -3.3786982600       -0.8505727731
 C          1.9903826823       -4.6974335539       -1.0915218655
 C          0.6332279661       -4.9355813797       -0.8791446118
 C          0.1214442547       -6.1974434828       -1.1226362350
 C          0.9854868398       -7.1838353167       -1.5751487099
 N          2.2755612750       -6.9755740648       -1.7747334135
 C          2.7605028116       -5.7726891193       -1.5389215292
 C          3.5300226509       -2.8528645895       -1.7313293886
 C          4.0757568116       -1.6037207716       -1.5160655549
 C          1.1477128022        2.1491331331        0.7115228864
 C         -0.2248247808        2.0168566926        0.6827988290
 C         -2.9430309173        0.5192732850        0.8479984043
 C         -2.1555772172        0.1672546619        2.0467855327
 C         -1.1043268533       -0.7405754870        1.9548549498
 C         -0.3636837711       -1.0692413264        3.0743608346
 C         -0.6586300591       -0.4937965517        4.2987346643
 C         -1.7007651951        0.4118899010        4.3981268486
 C         -2.4458504997        0.7396042052        3.2808741176
 C         -4.3292751246        0.3418851953        0.8325496395
 C         -5.0135697597       -0.1900214416        2.0297458289
 C         -4.6554489509       -1.4272219585        2.5551005466
 C         -5.2960725009       -1.9249179960        3.6741796426
 C         -6.2995170114       -1.1920367169        4.2846785941
 C         -6.6603443405        0.0413882757        3.7694512969
 C         -6.0234584368        0.5394831151        2.6483630757
 C         -5.0717367653        0.6626524628       -0.3083799057
 C         -6.5364690043        0.4758882751       -0.3146372839
 C         -7.0933189532       -0.7707182166       -0.0466019307
 C         -8.4647238975       -0.9419423889       -0.0583069661
 C         -9.2975414967        0.1292906214       -0.3341703763
 C         -8.7515422894        1.3734182842       -0.6008926626
 C         -7.3801936447        1.5463529736       -0.5935270471
 C         -6.0185589752        0.5722589691       -3.2663942837
 C         -6.7019340731        0.8968627698       -4.4229985627
 H         -7.0803097186        2.3985966043       -5.9023553359
 H         -5.5493633155        4.0377955008       -4.8729524703
 H         -4.3297400812        3.4614802667       -2.8138471204
 H         -2.5405840160        1.7226041621       -2.2890392770
 H         -0.5241127086        0.0379379589       -2.0380047768
 H          1.9183841039        0.2557347496       -1.9864281626
 H          5.4171024054        4.9066634071        0.3358039774
 H          7.4434639816        6.3482253491        0.4864032517
 H          9.6762200048        5.2970680535        0.4177024289
 H          9.9159944078        2.8999858722        0.2316955897
 H         10.0501627521        0.9516742455        0.2305864515
 H         10.2201531065       -1.4636664982        0.1869494529
 H          8.1796232878       -2.8610285953        0.1107637813
 H          5.9802608491       -1.7978142052        0.0172189398
 H          2.4768745275       -0.8075991120        1.3594209554
 H          1.5000913564       -3.0332913426        0.9642333390
 H         -0.0124564090       -4.1341556315       -0.5483416938
 H         -0.9257790096       -6.4097049768       -0.9718532402
 H          0.6345477352       -8.1848303988       -1.7877590568
 H          3.8255665250       -5.6603314709       -1.6971014194
 H          3.8144492842       -3.4157082180       -2.6077287774
 H          4.7919858939       -1.1897255045       -2.2109807393
 H          1.6281366150        2.7534921310        1.4653516572
 H         -0.8308178536        2.5218214252        1.4203516386
 H         -0.8743812516       -1.1932865286        1.0003631269
 H          0.4470846610       -1.7796009034        2.9959809282
 H         -0.0779488157       -0.7513427948        5.1721838962
 H         -1.9342131384        0.8658749189        5.3500180312
 H         -3.2530338547        1.4532382348        3.3598819132
 H         -3.8771128214       -2.0038393921        2.0759011349
 H         -5.0113390137       -2.8885257387        4.0711705589
 H         -6.7987836869       -1.5810506260        5.1598271646
 H         -7.4411203007        0.6184411534        4.2431101689
 H         -6.3015490935        1.5055266840        2.2521513653
 H         -6.4451808378       -1.6101560209        0.1605227536
 H         -8.8850612083       -1.9155123568        0.1481486510
 H        -10.3691123773       -0.0055239268       -0.3417969855
 H         -9.3966504641        2.2127978246       -0.8160920615
 H         -6.9558156447        2.5193726876       -0.7961009641
 H         -6.1412524586       -0.4049210328       -2.8231260114
 H         -7.3643746914        0.1729285605       -4.8747523110
