  106
  -162.479022040000       0.341499551005568      !
 C         -6.5291700742        2.2759707556       -4.9585816994
 C         -5.6432421558        3.1771733525       -4.3931633226
 C         -4.9520212403        2.8421765830       -3.2433426721
 C         -5.1460534317        1.6044698306       -2.6374214301
 C         -4.4036161798        1.2624850877       -1.4104230381
 C         -3.0222671645        1.4029592134       -1.3953509427
 C         -2.2755864524        1.0794911174       -0.2722730427
 C         -0.8120511386        1.2496541575       -0.2881827437
 C         -0.0482014796        0.6199801758       -1.2660015269
 C          1.3290065462        0.6997426356       -1.2412805331
 C          1.9711175753        1.4305381715       -0.2441173105
 C          3.4242922844        1.4691281491       -0.1504110277
 N          4.1405155016        2.5483747225        0.0121415416
 C          5.4377842711        2.1354062185        0.0284657467
 C          6.6061664549        2.9392725075        0.1355167684
 C          6.5203866443        4.3314949040        0.2417115555
 C          7.6602671397        5.0927075438        0.3073222568
 C          8.9046360332        4.4668274392        0.2628942293
 C          9.0004810342        3.0984117382        0.1651231393
 C          7.8588165967        2.2844873228        0.1055633245
 C          7.9259359282        0.8349851792        0.0400095636
 C          9.1499557661        0.1524335410        0.0854890886
 C          9.2209841199       -1.2204346932        0.0739411593
 C          8.0557461203       -1.9797004026        0.0376619113
 C          6.8366530864       -1.3505234401       -0.0178287103
 C          6.7440393023        0.0484396889       -0.0433401136
 C          5.5080657499        0.7508252650       -0.1126256503
 N          4.2018206778        0.3323049895       -0.2365140167
 C          3.6733601614       -0.9563782039       -0.4243365228
 C          2.7370442450       -1.4493138021        0.4786549504
 C          2.1525252453       -2.6799634744        0.2592228937
 C          2.4957259631       -3.4450666901       -0.8534773615
 C          1.8664315907       -4.7502196871       -1.0820218294
 C          0.5057704400       -4.9541703911       -0.8568713202
 C         -0.0385374346       -6.2045144669       -1.0889819290
 C          0.7974152628       -7.2140326464       -1.5432528963
 N          2.0904031070       -7.0382602894       -1.7548784255
 C          2.6063813774       -5.8462641137       -1.5298911540
 C          3.4448167483       -2.9470796965       -1.7450950023
 C          4.0225133701       -1.7104268724       -1.5414262125
 C          1.2055593282        2.1244042211        0.6897942661
 C         -0.1699785932        2.0253688263        0.6733941913
 C         -2.9221924772        0.5951943701        0.8698918358
 C         -2.1332607137        0.2305979302        2.0639383711
 C         -1.1051655518       -0.7029924186        1.9682120028
 C         -0.3631421494       -1.0435322713        3.0832459550
 C         -0.6335374071       -0.4545111401        4.3068315826
 C         -1.6525083869        0.4767548064        4.4099542176
 C         -2.3989763052        0.8164634927        3.2972161098
 C         -4.3124128544        0.4514658118        0.8671340652
 C         -4.9991191353       -0.0572059115        2.0730155253
 C         -4.6666211613       -1.2998996260        2.6022325330
 C         -5.3095107114       -1.7758528800        3.7294412218
 C         -6.2896136731       -1.0155291019        4.3442832841
 C         -6.6248220272        0.2235105148        3.8252371117
 C         -5.9856764372        0.6999424683        2.6960487166
 C         -5.0566294492        0.7840384757       -0.2692629773
 C         -6.5254605031        0.6328935427       -0.2621150518
 C         -7.1100645317       -0.5983525070        0.0175702288
 C         -8.4852689589       -0.7362595316        0.0183963252
 C         -9.2941933217        0.3533961346       -0.2564087717
 C         -8.7204853106        1.5824348758       -0.5346756297
 C         -7.3453328767        1.7220299101       -0.5398500043
 C         -6.0306888409        0.7007682576       -3.2186301490
 C         -6.7158797674        1.0356560512       -4.3712212170
 H         -7.0703880191        2.5381609096       -5.8556982802
 H         -5.4913651760        4.1451859190       -4.8484258984
 H         -4.2684719472        3.5504884580       -2.7964994851
 H         -2.5175850234        1.7714954569       -2.2771039830
 H         -0.5404902047        0.0396986068       -2.0336890740
 H          1.9069230296        0.1983492839       -2.0039453082
 H          5.5371983202        4.7753066926        0.2626581940
 H          7.5991450571        6.1679888058        0.3880950201
 H          9.8050776379        5.0625284328        0.3064265749
 H          9.9850374567        2.6593613093        0.1317968735
 H         10.0718960552        0.7083868205        0.1404396307
 H         10.1828725517       -1.7105714216        0.1088634222
 H          8.1084722406       -3.0583227363        0.0577090401
 H          5.9348237575       -1.9424933820       -0.0232090512
 H          2.4681205457       -0.8602269045        1.3429593179
 H          1.4342891926       -3.0636184819        0.9684692500
 H         -0.1174259956       -4.1355221936       -0.5251132093
 H         -1.0892698641       -6.3904500015       -0.9281828086
 H          0.4204907662       -8.2073331300       -1.7472985832
 H          3.6724617967       -5.7606748173       -1.6976792473
 H          3.7079845377       -3.5213758726       -2.6207056266
 H          4.7425895026       -1.3177038170       -2.2446631983
 H          1.7069450490        2.7209565419        1.4361536576
 H         -0.7572005243        2.5488715736        1.4132025513
 H         -0.8944589840       -1.1662862909        1.0143574872
 H          0.4294564345       -1.7737962728        3.0019959602
 H         -0.0518072763       -0.7213898929        5.1767741788
 H         -1.8667075316        0.9413933810        5.3612306673
 H         -3.1879061948        1.5499171879        3.3790454127
 H         -3.9066363527       -1.8978311384        2.1197101308
 H         -5.0448402634       -2.7439457490        4.1293919427
 H         -6.7906482050       -1.3875813921        5.2257738095
 H         -7.3872827946        0.8219068202        4.3022374164
 H         -6.2436404928        1.6703131708        2.2968074918
 H         -6.4807256699       -1.4521666131        0.2239038128
 H         -8.9273109941       -1.6982023869        0.2338276166
 H        -10.3687448445        0.2446230052       -0.2542383136
 H         -9.3468658695        2.4360736631       -0.7491087605
 H         -6.8992315593        2.6833453707       -0.7514308220
 H         -6.1732429987       -0.2707426480       -2.7688901345
 H         -7.3995327371        0.3256139641       -4.8133169223
  106
  -162.478992920000       0.331136848814540      !
 C         -6.5159696368        2.3685015448       -4.9539391149
 C         -5.5677789808        3.2190544052       -4.4113555548
 C         -4.8929658398        2.8611249131       -3.2588316241
 C         -5.1649600316        1.6511507515       -2.6270084871
 C         -4.4369256634        1.2826941494       -1.3993173166
 C         -3.0501180708        1.3532848201       -1.3898456233
 C         -2.3173562921        1.0055533286       -0.2650822477
 C         -0.8499686675        1.1413858135       -0.2748396005
 C         -0.0866881427        0.4936203263       -1.2406981519
 C          1.2912825827        0.5710878374       -1.2165232120
 C          1.9337232058        1.3202478208       -0.2336522863
 C          3.3861227003        1.3905869413       -0.1519404079
 N          4.0697935607        2.4925877118        0.0016633118
 C          5.3791316355        2.1209333896        0.0105009803
 C          6.5225968880        2.9618980519        0.1003727560
 C          6.3942817566        4.3520724141        0.1880028972
 C          7.5103856485        5.1491283707        0.2316595313
 C          8.7732915151        4.5616642088        0.1844816142
 C          8.9109258803        3.1956802814        0.1060169028
 C          7.7946819624        2.3459311419        0.0685832607
 C          7.9060017474        0.8983677454        0.0225017411
 C          9.1503806234        0.2543427614        0.0777479995
 C          9.2636702207       -1.1156579841        0.0842612567
 C          8.1223047125       -1.9106988280        0.0575690116
 C          6.8845193903       -1.3200963839       -0.0059092317
 C          6.7486397828        0.0749876237       -0.0501015954
 C          5.4915623974        0.7384941951       -0.1238736649
 N          4.1979068655        0.2788112982       -0.2386295780
 C          3.7186353497       -1.0274553051       -0.4345365284
 C          2.8010395890       -1.5653276189        0.4619712562
 C          2.2810672521       -2.8244232606        0.2398772404
 C          2.6704352139       -3.5725236932       -0.8693708531
 C          2.1193190852       -4.9125796816       -1.0975207159
 C          0.7734733551       -5.1983881395       -0.8732230942
 C          0.3057209490       -6.4790354638       -1.1071144066
 C          1.2009433531       -7.4358420125       -1.5624872568
 N          2.4811826125       -7.1824428692       -1.7728080695
 C          2.9243235182       -5.9621791775       -1.5452942458
 C          3.5942455784       -3.0251058275       -1.7587445122
 C          4.1078902536       -1.7612066391       -1.5519905477
 C          1.1685386875        2.0229453359        0.6944991365
 C         -0.2064428230        1.9240817487        0.6803872917
 C         -2.9825552056        0.5526389789        0.8792821100
 C         -2.2038878303        0.1529882015        2.0685264779
 C         -1.2084279870       -0.8141317178        1.9606792467
 C         -0.4700435838       -1.1858949939        3.0681385309
 C         -0.7125971041       -0.5959052050        4.2970400825
 C         -1.6995606278        0.3680095537        4.4125689403
 C         -2.4414228344        0.7399454156        3.3071129455
 C         -4.3782981851        0.4781541053        0.8821070720
 C         -5.0838686158        0.0014852322        2.0902034755
 C         -4.8132566823       -1.2602654637        2.6096314168
 C         -5.4741151131       -1.7099022860        3.7372638065
 C         -6.4102143396       -0.9038770855        4.3624631754
 C         -6.6830736327        0.3545012576        3.8535261527
 C         -6.0260760355        0.8048379604        2.7238042675
 C         -5.1092505712        0.8504058537       -0.2505911379
 C         -6.5850549413        0.8031772048       -0.2301242369
 C         -7.2591098989       -0.3787456601        0.0597017480
 C         -8.6409515404       -0.4106420422        0.0734706699
 C         -9.3669209003        0.7368069563       -0.1974358139
 C         -8.7037007226        1.9176955543       -0.4851698782
 C         -7.3221729199        1.9511999733       -0.5037610810
 C         -6.1126471318        0.7981187542       -3.1851782139
 C         -6.7822208091        1.1558650247       -4.3401135527
 H         -7.0438818020        2.6484916350       -5.8536188171
 H         -5.3534328179        4.1648976136       -4.8874796046
 H         -4.1609928142        3.5310451622       -2.8298449431
 H         -2.5300129044        1.6897756003       -2.2754430520
 H         -0.5795526082       -0.0950168386       -2.0016622522
 H          1.8684399404        0.0582552269       -1.9722126290
 H          5.3979676448        4.7655663666        0.2106089863
 H          7.4166097973        6.2231586553        0.2956632940
 H          9.6550060708        5.1858569380        0.2093915653
 H          9.9082834582        2.7869272107        0.0688647114
 H         10.0546499891        0.8391614644        0.1269846862
 H         10.2400939490       -1.5755669229        0.1261820220
 H          8.2081125424       -2.9868291998        0.0915780848
 H          6.0016018784       -1.9398924516       -0.0023775007
 H          2.4992545261       -0.9911283249        1.3253732485
 H          1.5801759805       -3.2437168528        0.9463528456
 H          0.1018015066       -4.4193248800       -0.5407933857
 H         -0.7323859874       -6.7277712507       -0.9481634502
 H          0.8839929098       -8.4491066310       -1.7707203515
 H          3.9829206766       -5.8123584088       -1.7131162035
 H          3.8900723604       -3.5847121438       -2.6334036638
 H          4.8110227870       -1.3325166176       -2.2512066846
 H          1.6710099884        2.6296210949        1.4317660014
 H         -0.7934423406        2.4568975426        1.4136499215
 H         -1.0205706262       -1.2797925713        1.0032866553
 H          0.2983151568       -1.9402746242        2.9751197519
 H         -0.1337933986       -0.8861882395        5.1614514573
 H         -1.8919114685        0.8332747022        5.3682044827
 H         -3.2046601674        1.4989242951        3.3991349143
 H         -4.0872179462       -1.8929465746        2.1192308396
 H         -5.2575215826       -2.6928179013        4.1298439605
 H         -6.9256565329       -1.2555284097        5.2440293300
 H         -7.4110677459        0.9883129853        4.3385626187
 H         -6.2358444726        1.7898794972        2.3323827675
 H         -6.6953469984       -1.2777448125        0.2636608340
 H         -9.1534539733       -1.3351059381        0.2968450639
 H        -10.4466354577        0.7108248952       -0.1846222836
 H         -9.2648685752        2.8163841969       -0.6961270582
 H         -6.8057141266        2.8749112085       -0.7226479159
 H         -6.3168802546       -0.1528994371       -2.7159641061
 H         -7.5160869689        0.4852940594       -4.7631327022
  106
  -162.478982090000       0.327363600179892      !
 C         -6.4244579743        2.4318025526       -4.9574610451
 C         -5.5232428482        3.2991330257       -4.3639993614
 C         -4.8639753363        2.9294011169       -3.2063925575
 C         -5.1052521751        1.6903027997       -2.6205264760
 C         -4.3902607145        1.3065055037       -1.3898648353
 C         -3.0066654113        1.4155247020       -1.3523822917
 C         -2.2826023651        1.0477388953       -0.2280840891
 C         -0.8168056815        1.1983658096       -0.2260321792
 C         -0.0544754688        0.5866008714       -1.2162629536
 C          1.3224707116        0.6692577543       -1.1945438102
 C          1.9656443123        1.3883437033       -0.1898660698
 C          3.4199668376        1.4488670586       -0.1228039653
 N          4.1225849677        2.5400076869        0.0166800656
 C          5.4263416038        2.1477972524       -0.0047484938
 C          6.5840413989        2.9710763328        0.0623678892
 C          6.4787661808        4.3626641541        0.1600421455
 C          7.6074389505        5.1427878715        0.1834130611
 C          8.8599131248        4.5368107858        0.1047749516
 C          8.9750952924        3.1693599449        0.0156431782
 C          7.8456619310        2.3363977888       -0.0009693414
 C          7.9343126154        0.8878026364       -0.0586878964
 C          9.1698109876        0.2250335758       -0.0377441551
 C          9.2628022652       -1.1464013369       -0.0471361309
 C          8.1095857251       -1.9243887991       -0.0576927213
 C          6.8796498198       -1.3151485160       -0.0854666187
 C          6.7635783684        0.0820942950       -0.1095641044
 C          5.5150088506        0.7641835832       -0.1454074676
 N          4.2123343062        0.3247115935       -0.2299876060
 C          3.6973610263       -0.9723542316       -0.3969606750
 C          2.7984117365       -1.4757143301        0.5377421860
 C          2.2301656455       -2.7182529639        0.3449086944
 C          2.5505033609       -3.4843690476       -0.7738758809
 C          1.9403979695       -4.8033577041       -0.9721972004
 C          0.5956100336       -5.0369770933       -0.6880440047
 C          0.0696186627       -6.2997333218       -0.8944669808
 C          0.9069320303       -7.2916536478       -1.3835187403
 N          2.1857028370       -7.0879667316       -1.6502069393
 C          2.6844798851       -5.8845756167       -1.4487375770
 C          3.4592537386       -2.9737687986       -1.6998106423
 C          4.0219830431       -1.7263126669       -1.5214161195
 C          1.2021243151        2.0548295023        0.7650446552
 C         -0.1732360431        1.9498581834        0.7533357555
 C         -2.9542268383        0.5458989528        0.8915299158
 C         -2.1882925119        0.1311826051        2.0838416031
 C         -1.1681843161       -0.8092883974        1.9705640781
 C         -0.4473559415       -1.1975802724        3.0839841399
 C         -0.7318812592       -0.6513750537        4.3239848205
 C         -1.7427626902        0.2867513483        4.4447485548
 C         -2.4669221403        0.6755007799        3.3333979213
 C         -4.3474314623        0.4339009268        0.8664226422
 C         -5.0620668841       -0.0947736155        2.0473081661
 C         -4.7703242985       -1.3633267743        2.5375830303
 C         -5.4397220043       -1.8587477288        3.6406972495
 C         -6.4051269695       -1.0920367342        4.2704914724
 C         -6.6997185526        0.1726371259        3.7901262635
 C         -6.0347274161        0.6683429342        2.6844408017
 C         -5.0689768539        0.8157104705       -0.2690100628
 C         -6.5417938272        0.7105432955       -0.2809598816
 C         -7.1710966561       -0.5067967464       -0.0414323206
 C         -8.5501807673       -0.5963763389       -0.0566517438
 C         -9.3182051249        0.5280480159       -0.3071007847
 C         -8.6997715855        1.7435193932       -0.5458814946
 C         -7.3208124068        1.8348956114       -0.5354322012
 C         -6.0059866230        0.8213454389       -3.2292304726
 C         -6.6592601904        1.1908095459       -4.3895393461
 H         -6.9396514352        2.7205243749       -5.8614225092
 H         -5.3333344772        4.2671424631       -4.8043165884
 H         -4.1680359856        3.6113765084       -2.7383108637
 H         -2.4812186126        1.7946446533       -2.2173565828
 H         -0.5481185758        0.0211657490       -1.9940610980
 H          1.8995411788        0.1834820233       -1.9678954928
 H          5.4895663487        4.7907778512        0.2071118036
 H          7.5314374194        6.2177380375        0.2558517427
 H          9.7512963115        5.1476537278        0.1135966141
 H          9.9650814614        2.7460340474       -0.0462284477
 H         10.0835096767        0.7959493779       -0.0029379570
 H         10.2329708914       -1.6208578283       -0.0311260076
 H          8.1804210145       -3.0019172468       -0.0389443229
 H          5.9877762150       -1.9217281175       -0.0706328814
 H          2.5470570610       -0.8865720586        1.4072685114
 H          1.5438703598       -3.1107474700        1.0803076610
 H         -0.0311524842       -4.2320158400       -0.3308255737
 H         -0.9686894452       -6.5084753316       -0.6874904368
 H          0.5436087686       -8.2937066591       -1.5700574089
 H          3.7401961868       -5.7761801247       -1.6620440681
 H          3.7027994198       -3.5475416347       -2.5813548621
 H          4.7111637828       -1.3253590558       -2.2505005141
 H          1.7042118887        2.6384687183        1.5210941482
 H         -0.7593518688        2.4544589416        1.5069732808
 H         -0.9466571590       -1.2406663173        1.0042730744
 H          0.3410563004       -1.9306009560        2.9877385417
 H         -0.1668489514       -0.9556222677        5.1927571823
 H         -1.9684207692        0.7178177254        5.4090747785
 H         -3.2498878440        1.4134231598        3.4301733123
 H         -4.0214744246       -1.9655774495        2.0431126249
 H         -5.2074081031       -2.8470804585        4.0100687461
 H         -6.9263805447       -1.4790237302        5.1336144154
 H         -7.4500914494        0.7762963218        4.2795374926
 H         -6.2604048139        1.6587741139        2.3160054595
 H         -6.5739321024       -1.3875425421        0.1463061093
 H         -9.0274077171       -1.5479593563        0.1274965604
 H        -10.3958776086        0.4570538437       -0.3169892601
 H         -9.2941655798        2.6240566423       -0.7416046895
 H         -6.8394605912        2.7852526750       -0.7173499664
 H         -6.1857778540       -0.1510356785       -2.7952605634
 H         -7.3558691345        0.5072418513       -4.8525811582
