  96
       -156.78153118
 C         -9.8022152666       -4.7900806819        0.0217041823
 C        -10.2388321653       -3.4747909243       -0.0168362742
 C         -9.3232143434       -2.4406703630       -0.0241787483
 C         -7.9579699588       -2.7174499563        0.0068571502
 C         -6.9858429292       -1.6238141763       -0.0029134084
 N         -7.4497003816       -0.3775919403       -0.0219276081
 C         -6.5329537341        0.5858476686       -0.0309097853
 C         -6.9921201275        1.9747925336       -0.0538163380
 C         -8.3553334391        2.2628663892       -0.0487022382
 C         -8.7844607617        3.5755912055       -0.0712602154
 C         -7.8605129320        4.6088859318       -0.0991552055
 C         -6.5030743464        4.3272386750       -0.1043825737
 C         -6.0671959212        3.0168296368       -0.0818024609
 N         -5.2223279023        0.3637636629       -0.0216785988
 C         -4.8462147014       -0.9115808333       -0.0037758768
 C         -3.4132221288       -1.1985859531        0.0021810928
 C         -2.9650891029       -2.5207448654       -0.0091806720
 C         -1.6151997057       -2.8143939166       -0.0094794369
 C         -0.7052587549       -1.7667518269        0.0026656866
 C         -1.1574285647       -0.4371056225        0.0170708353
 C         -2.4981070380       -0.1422803828        0.0163059770
 C          0.0134445317        0.5280282331        0.0303493469
 C         -0.0033350947        1.3606982392        1.2914705244
 C          0.1171002014        0.7462750660        2.5311007081
 C          0.0806548517        1.4848174013        3.6980053700
 C         -0.0813676083        2.8600461743        3.6379534888
 C         -0.2013342804        3.4873869251        2.4152470568
 C         -0.1622890508        2.7416036944        1.2396542604
 O         -0.2831697023        3.4429699167        0.0763516720
 C         -0.1655172633        2.7781739138       -1.1085926907
 C         -0.2088022524        3.5601634393       -2.2602761667
 C         -0.0928790856        2.9711487584       -3.5022669203
 C          0.0696435377        1.5985253808       -3.6055891727
 C          0.1105886243        0.8240935266       -2.4623584800
 C         -0.0061631217        1.3996389614       -1.2038516671
 C          1.1886852597       -0.4275621539        0.0159296046
 C          2.5277493949       -0.1239216001        0.0161376895
 C          3.4498570625       -1.1742010305        0.0013754272
 C          4.8816933858       -0.8815909777       -0.0019860990
 N          5.7299802484       -1.9059855026       -0.0153230244
 C          7.0220890745       -1.5922399815       -0.0200724839
 C          7.9932744931       -2.6865542500       -0.0355721965
 C          7.5565234589       -4.0095775824       -0.0587199282
 C          8.4750742496       -5.0408727658       -0.0756952607
 C          9.8332125612       -4.7625744154       -0.0694024455
 C         10.2727108445       -3.4479964498       -0.0457510604
 C          9.3592284173       -2.4120105761       -0.0289561060
 N          7.4848754077       -0.3455706813       -0.0135370354
 C          6.5672142034        0.6170727122       -0.0012032192
 C          7.0268971817        2.0061388373        0.0015180056
 C          6.1032172893        3.0491677042        0.0234641738
 C          6.5402501699        4.3594717413        0.0219569632
 C          7.8975839902        4.6399976536       -0.0015530238
 C          8.8204382532        3.6056356822       -0.0224992859
 C          8.3901864390        2.2931347475       -0.0208508345
 N          5.2565173629        0.3942839189        0.0061651224
 C          3.0106568505       -2.4994393808       -0.0121597857
 C          1.6629736275       -2.8025971036       -0.0120686120
 C          0.7460676706       -1.7611122422        0.0016849246
 N         -5.6934170457       -1.9369841123        0.0063126147
 C         -7.5242029246       -4.0409371249        0.0458414340
 C         -8.4450325559       -5.0705382204        0.0531950402
 H        -10.5204106642       -5.5970976641        0.0268027953
 H        -11.2969851475       -3.2588393872       -0.0413228968
 H         -9.6439604264       -1.4113320225       -0.0546521787
 H         -9.0593601793        1.4460324115       -0.0266613864
 H         -9.8415799328        3.7978709563       -0.0669769060
 H         -8.1988779492        5.6347353794       -0.1166724493
 H         -5.7848039103        5.1339095316       -0.1260309276
 H         -5.0153152373        2.7791498784       -0.0862894012
 H         -3.7014773416       -3.3086149208       -0.0194844497
 H         -1.2750597263       -3.8390934011       -0.0196370371
 H         -2.8602022379        0.8740299721        0.0268943513
 H          0.2389923870       -0.3263296470        2.5731068369
 H          0.1762427129        0.9901492192        4.6523834345
 H         -0.1128859141        3.4443572117        4.5449888350
 H         -0.3259988319        4.5562411931        2.3408630589
 H         -0.3345108869        4.6260002407       -2.1522102715
 H         -0.1282119292        3.5832361481       -4.3906454470
 H          0.1618846817        1.1339039305       -4.5752660961
 H          0.2325322601       -0.2466618702       -2.5378309928
 H          2.8819660074        0.8949714080        0.0261569362
 H          6.4962184070       -4.2064664291       -0.0638923363
 H          8.1351960996       -6.0660358454       -0.0946230461
 H         10.5497504776       -5.5709583113       -0.0831574679
 H         11.3315537824       -3.2338980239       -0.0406237637
 H          9.6825094388       -1.3832425647       -0.0104970568
 H          5.0512228820        2.8124615782        0.0410973410
 H          5.8229482108        5.1669497697        0.0385574957
 H          8.2368041256        5.6656963659       -0.0034690423
 H          9.8776068959        3.8269934678       -0.0407020790
 H          9.0932888472        1.4754465201       -0.0378475271
 H          3.7524532413       -3.2821630341       -0.0232133990
 H          1.3297899045       -3.8295535220       -0.0232037657
 H         -6.4645540230       -4.2399236907        0.0704308092
 H         -8.1074682110       -6.0963638092        0.0839022910
