  96
  -156.217352652000       0.849793789628718      !
 C         -9.7678003976       -4.6076839216        1.2816745366
 C        -10.2240218231       -3.3703660776        0.8542810985
 C         -9.3237068455       -2.3820213585        0.5069790432
 C         -7.9545361039       -2.6279479387        0.5839306428
 C         -6.9969935048       -1.5800488583        0.2295689084
 N         -7.4716333258       -0.3736112931       -0.0661277460
 C         -6.5644946182        0.5582696261       -0.3442105015
 C         -7.0363994441        1.8992617540       -0.6893978980
 C         -8.3999978231        2.1850238898       -0.6865602281
 C         -8.8413540721        3.4515140060       -1.0171064333
 C         -7.9291928806        4.4401015217       -1.3519432899
 C         -6.5715753479        4.1600368404       -1.3569389523
 C         -6.1231636855        2.8958183608       -1.0278738527
 N         -5.2521685521        0.3453879296       -0.3280350928
 C         -4.8677337852       -0.8971986680       -0.0531498123
 C         -3.4346303132       -1.1837947937       -0.0627096353
 C         -2.9899172545       -2.5061658961       -0.1023597517
 C         -1.6404814162       -2.8008108025       -0.1345447076
 C         -0.7296450788       -1.7541992985       -0.1117112563
 C         -1.1787946537       -0.4244617870       -0.0535363279
 C         -2.5195423878       -0.1282563248       -0.0385897311
 C         -0.0081318344        0.5372061055       -0.0177729215
 C          0.0108116382        1.3258726321        1.2714422455
 C         -0.0333720963        0.6621961699        2.4906837847
 C          0.0008919577        1.3597832135        3.6824989487
 C          0.0828131472        2.7434000207        3.6686251956
 C          0.1258034079        3.4193289199        2.4669642971
 C          0.0890348115        2.7145530549        1.2660996046
 O          0.1310238153        3.4629050590        0.1269423483
 C          0.0504697901        2.8321988247       -1.0792960518
 C          0.0383805906        3.6541042565       -2.2036945516
 C         -0.0434592309        3.1016070018       -3.4649796455
 C         -0.1132494353        1.7254422468       -3.6153022172
 C         -0.1006206681        0.9116433210       -2.4991603036
 C         -0.0199668856        1.4503416538       -1.2215663506
 C          1.1673910841       -0.4201668765       -0.0713562562
 C          2.5071327819       -0.1201767393       -0.0527628942
 C          3.4260049273       -1.1717388565       -0.1077748414
 C          4.8583806949       -0.8847014666       -0.0650224051
 N          5.7050325659       -1.8760711062       -0.3270563668
 C          6.9973302145       -1.5684376726       -0.2647917295
 C          7.9677392531       -2.6222363855       -0.5630412913
 C          7.5323772324       -3.8675090289       -1.0115861732
 C          8.4501522511       -4.8610762931       -1.2913286545
 C          9.8055134760       -4.6227356007       -1.1251049025
 C         10.2435482196       -3.3850731794       -0.6797438900
 C          9.3311199410       -2.3865303656       -0.4000101678
 N          7.4611359322       -0.3645196768        0.0571011519
 C          6.5442704373        0.5654118909        0.3086101028
 C          7.0033176995        1.9027858537        0.6839627528
 C          6.0796882779        2.8848635240        1.0367800460
 C          6.5153884073        4.1440248342        1.4004954841
 C          7.8710229384        4.4337950439        1.4152652320
 C          8.7934123004        3.4603373432        1.0641175410
 C          8.3646680120        2.1988292895        0.6995444920
 N          5.2334678829        0.3521329850        0.2469254057
 C          2.9843444355       -2.4935639471       -0.1855068334
 C          1.6357238613       -2.7930500542       -0.1933311885
 C          0.7216836693       -1.7510133404       -0.1311532169
 N         -5.7041621329       -1.8922115461        0.2262213798
 C         -7.5006037992       -3.8738206794        1.0120064429
 C         -8.4063077256       -4.8570572112        1.3596642140
 H        -10.4740155634       -5.3781960336        1.5551428025
 H        -11.2854182509       -3.1789675863        0.7938517097
 H         -9.6596029932       -1.4131435026        0.1729756633
 H         -9.0945805860        1.4025450093       -0.4239833849
 H         -9.8988035447        3.6718734318       -1.0169054467
 H         -8.2770341581        5.4298642161       -1.6097902138
 H         -5.8627513009        4.9323482039       -1.6180009605
 H         -5.0709361331        2.6590233407       -1.0279020640
 H         -3.7277402320       -3.2929609533       -0.1178388650
 H         -1.3012818877       -3.8249990058       -0.1759440666
 H         -2.8796970043        0.8882047630       -0.0012118789
 H         -0.0942175792       -0.4163893834        2.4964658365
 H         -0.0344350646        0.8270764475        4.6203725646
 H          0.1120882544        3.2959624371        4.5954446272
 H          0.1875512066        4.4954993528        2.4281192639
 H          0.0935382341        4.7215898871       -2.0591107079
 H         -0.0535832638        3.7449005593       -4.3316863510
 H         -0.1777209191        1.2891190231       -4.6002324855
 H         -0.1546630623       -0.1615154078       -2.6107666421
 H          2.8646012475        0.8965037064        0.0008526413
 H          6.4741971450       -4.0335015896       -1.1374276014
 H          8.1114775283       -5.8255350296       -1.6408652852
 H         10.5212996782       -5.4018447487       -1.3434132869
 H         11.3003490337       -3.2016005989       -0.5513291806
 H          9.6533396510       -1.4181066018       -0.0511774735
 H          5.0293689849        2.6400007051        1.0236479728
 H          5.7984661625        4.9039387514        1.6750799547
 H          8.2090918661        5.4191669398        1.7015373610
 H          9.8492081038        3.6884604416        1.0770748686
 H          9.0675180089        1.4283629957        0.4243192130
 H          3.7243264613       -3.2771924073       -0.2282178671
 H          1.3000167137       -3.8179807497       -0.2439772431
 H         -6.4374716728       -4.0471749899        1.0705318448
 H         -8.0534640181       -5.8216177046        1.6945531893
  96
  -156.215714971900       0.150206210371282      !
 C         -9.8163714069       -4.7610303806       -0.0145003327
 C        -10.2491301936       -3.4441225769       -0.0385938693
 C         -9.3304534785       -2.4126946900       -0.0363915486
 C         -7.9659955621       -2.6938220421       -0.0102303875
 C         -6.9906364409       -1.6030241102       -0.0099122124
 N         -7.4508134500       -0.3553043314       -0.0151668720
 C         -6.5312203424        0.6054607069       -0.0153482376
 C         -6.9862875209        1.9959216372       -0.0230025918
 C         -8.3486298789        2.2879566899       -0.0129000731
 C         -8.7738842419        3.6021096012       -0.0210497548
 C         -7.8469089695        4.6329030393       -0.0394194629
 C         -6.4903223611        4.3473124732       -0.0495594228
 C         -6.0583100166        3.0354550011       -0.0413730013
 N         -5.2212488010        0.3794163677       -0.0103373891
 C         -4.8489037076       -0.8971527265       -0.0063737209
 C         -3.4167636943       -1.1884418398       -0.0054950321
 C         -2.9725795559       -2.5117280552       -0.0313896477
 C         -1.6235708310       -2.8093491637       -0.0367164821
 C         -0.7105033095       -1.7645885480       -0.0148774523
 C         -1.1586976652       -0.4338355279        0.0141448365
 C         -2.4984935177       -0.1350543680        0.0184072009
 C          0.0150569095        0.5276380765        0.0358748227
 C          0.0025291287        1.3470556410        1.3056958451
 C          0.1228833977        0.7192862424        2.5386289012
 C          0.0902774669        1.4456299836        3.7132782775
 C         -0.0677404839        2.8218870892        3.6679087879
 C         -0.1875638917        3.4623940669        2.4520335470
 C         -0.1523918586        2.7288934708        1.2686167211
 O         -0.2728255042        3.4427999686        0.1129208826
 C         -0.1588191043        2.7901475410       -1.0791094501
 C         -0.2014014670        3.5843209266       -2.2224516619
 C         -0.0889794066        3.0080498902       -3.4707266636
 C          0.0693163195        1.6361133575       -3.5886954770
 C          0.1095693527        0.8495929396       -2.4537228169
 C         -0.0036980585        1.4122244248       -1.1890729756
 C          1.1874302278       -0.4312199579        0.0097260629
 C          2.5273900607       -0.1315603612        0.0111957128
 C          3.4463497182       -1.1843494816       -0.0159257325
 C          4.8790434179       -0.8959566185       -0.0182749304
 N          5.7242616272       -1.9226590072       -0.0435929328
 C          7.0172894614       -1.6127040650       -0.0469067990
 C          7.9851946606       -2.7096628119       -0.0752988664
 C          7.5444803553       -4.0310722383       -0.1117138409
 C          8.4599364734       -5.0648444665       -0.1408436957
 C          9.8189036142       -4.7906459217       -0.1335833206
 C         10.2623407571       -3.4776947773       -0.0967573886
 C          9.3519666654       -2.4392452340       -0.0677659269
 N          7.4837885425       -0.3675465583       -0.0279427002
 C          6.5690113828        0.5976241150       -0.0041765169
 C          7.0328250644        1.9852192219        0.0124738119
 C          6.1122817557        3.0306873694        0.0467048613
 C          6.5532053653        4.3396365105        0.0583322669
 C          7.9113326606        4.6163780458        0.0358160720
 C          8.8310775174        3.5795682119        0.0026771005
 C          8.3969286056        2.2684007629       -0.0088419121
 N          5.2576697161        0.3786479396        0.0027382784
 C          3.0031932039       -2.5080675626       -0.0427484694
 C          1.6546161868       -2.8072220083       -0.0439013962
 C          0.7408306468       -1.7632317183       -0.0178884895
 N         -5.6991355329       -1.9200950659       -0.0058371123
 C         -7.5361103682       -4.0189230029        0.0142249470
 C         -8.4599854136       -5.0458163949        0.0120887351
 H        -10.5369548027       -5.5659285769       -0.0168450784
 H        -11.3066699709       -3.2247967924       -0.0592872152
 H         -9.6481807774       -1.3821487577       -0.0555890435
 H         -9.0550500125        1.4730221382        0.0015729480
 H         -9.8303308758        3.8274578365       -0.0129098010
 H         -8.1822472288        5.6598762501       -0.0456727805
 H         -5.7696882683        5.1520382550       -0.0637672316
 H         -5.0071479089        2.7947253100       -0.0498707978
 H         -3.7113204711       -3.2972647994       -0.0489086009
 H         -1.2864931836       -3.8348869097       -0.0581269290
 H         -2.8575505988        0.8821551605        0.0401918866
 H          0.2416454999       -0.3540565063        2.5691902686
 H          0.1857386290        0.9406794967        4.6622689581
 H         -0.0962439444        3.3967249789        4.5810762778
 H         -0.3091551017        4.5323350359        2.3890607263
 H         -0.3237887238        4.6493304279       -2.1030150375
 H         -0.1237438506        3.6295408116       -4.3525748689
 H          0.1588098603        1.1814365841       -4.5633312010
 H          0.2282229207       -0.2206662345       -2.5406141363
 H          2.8846477921        0.8861189442        0.0314071106
 H          6.4835884517       -4.2247588339       -0.1174275364
 H          8.1169859388       -6.0887422648       -0.1700496379
 H         10.5330151485       -5.6009564737       -0.1568606801
 H         11.3218216511       -3.2667948293       -0.0909059232
 H          9.6783302176       -1.4116887021       -0.0389669315
 H          5.0596142087        2.7969216343        0.0633652433
 H          5.8383311078        5.1490136068        0.0844465611
 H          8.2535974157        5.6410324276        0.0441859557
 H          9.8888728425        3.7979772028       -0.0147215478
 H          9.0975724786        1.4488602384       -0.0354391506
 H          3.7426431628       -3.2928224981       -0.0630913963
 H          1.3183656886       -3.8330147280       -0.0653436208
 H         -6.4770241022       -4.2212903315        0.0351970901
 H         -8.1254291718       -6.0729019869        0.0315327218
