  74
       -119.07532554
 N         -6.7211627019       -0.0927826527       -1.8754828594
 C         -5.8208231031       -0.7137072242       -1.5096178459
 C         -4.7291531972       -1.4759839020       -1.0865496976
 C         -4.6355718145       -2.8392078638       -1.4256454232
 C         -3.5245761232       -3.5733319981       -1.1078975388
 C         -2.4281607126       -3.0012762127       -0.4204650771
 C         -1.2188958881       -3.7548462647       -0.1547177593
 C         -1.2045770645       -5.1700159830       -0.1126526126
 C         -0.0122959358       -5.8425121531        0.0749609781
 C          1.1791670766       -5.1663046089        0.2381788556
 C          1.2013987140       -3.7482057408        0.2338649229
 C          2.4136070480       -2.9942703604        0.4579087880
 C          3.5483659096       -3.5716619810        1.0862310980
 C          4.6781269334       -2.8461520479        1.3429381741
 C          4.7645478860       -1.4815646843        0.9990637027
 C          5.8818529634       -0.7279431252        1.3570138371
 N          6.8102604714       -0.1140044572        1.6632481940
 C          3.6374438601       -0.8908283332        0.3576585204
 N          3.6409944169        0.4760471597        0.0522901495
 C          2.6938739937        1.3762278159        0.4919456273
 C          1.5684463929        1.1598752982        1.2771474599
 C          0.7996060718        2.2564156210        1.6180553460
 C          1.1412564208        3.5386338967        1.1973375049
 C          2.2682127148        3.7614148975        0.4231035402
 C          3.0527099137        2.6774099921        0.0656882889
 C          4.2758379909        2.5361297817       -0.6823184128
 C          5.0924889862        3.4278767105       -1.3570199343
 C          6.2134752508        2.9362905579       -2.0062217242
 C          6.5104707699        1.5762695521       -2.0014615973
 C          5.7089340685        0.6665204367       -1.3379064347
 C          4.6017929322        1.1587952604       -0.6593171408
 C          2.5152312627       -1.6384069187        0.0954296209
 C         -0.0112150141       -3.0901819883        0.0293430293
 C         -2.5429783075       -1.6512658189       -0.0503903223
 C         -3.6441807176       -0.8939222789       -0.3773988400
 N         -3.6565015683        0.4707033701       -0.0604672809
 C         -4.6516222882        1.1570714130        0.5988393662
 C         -5.8095818499        0.6729556114        1.1931362651
 C         -6.6397699798        1.5854160016        1.8165276592
 C         -6.3226007944        2.9400484079        1.8645208277
 C         -5.1532415979        3.4229035518        1.3000651346
 C         -4.3072676759        2.5284739138        0.6659051222
 C         -3.0364869979        2.6624172470        0.0009454560
 C         -2.2147029739        3.7397035555       -0.2872317026
 C         -1.0461936906        3.5125347696       -0.9952513385
 C         -0.6980179220        2.2322768804       -1.4169636132
 C         -1.5023426319        1.1425313548       -1.1432147879
 C         -2.6708871419        1.3631540409       -0.4247847745
 H         -5.4546669355       -3.2903486737       -1.9664759151
 H         -3.4739074833       -4.6038378722       -1.4216511859
 H         -2.1231942292       -5.7264959943       -0.2043991616
 H         -0.0129518551       -6.9233027950        0.0926945051
 H          2.0949734681       -5.7243305838        0.3452781730
 H          3.5120073366       -4.6023196783        1.4005890486
 H          5.5233451079       -3.3033499959        1.8364386734
 H          1.3142996080        0.1711732641        1.6281187489
 H         -0.0813195653        2.1180008835        2.2264876521
 H          0.5218953664        4.3712161507        1.4934933481
 H          2.5380393256        4.7590610275        0.1120541313
 H          4.8590477557        4.4814653772       -1.3757781137
 H          6.8661635932        3.6168826801       -2.5316703399
 H          7.3836869160        1.2236473496       -2.5283596087
 H          5.9380325009       -0.3875993053       -1.3494266721
 H          1.7138472793       -1.1547472288       -0.4419966154
 H         -0.0142317504       -2.0128083477        0.0106935898
 H         -1.7704407554       -1.1795516752        0.5379931769
 H         -6.0561964023       -0.3770430216        1.1713861806
 H         -7.5520635775        1.2390322970        2.2772092668
 H         -6.9979237459        3.6227781369        2.3575179280
 H         -4.9045675146        4.4718338988        1.3528297828
 H         -2.4884440812        4.7360927977        0.0243385152
 H         -0.3988126543        4.3402549415       -1.2402368882
 H          0.2162511475        2.0909463959       -1.9734758482
 H         -1.2425231447        0.1562072723       -1.4969303354
