75
 energy: -110.074087696638 gnorm: 0.000060050165 xtb: 6.7.1 (edcfbbe)
C           -1.04778679344333        6.15185503137049        0.73097107394425
C           -0.14998730883103        5.30171243259079       -0.17298445994002
C            1.31223412920881        5.56803073084358        0.21537279416169
C           -0.38992818341179        5.73167505661023       -1.62787631484549
C           -0.42927926440038        3.81250115413818       -0.04336671327639
C            0.30954835969545        2.90741061293319       -0.80388697532478
C            0.09888418124439        1.54641905329631       -0.71855825938228
C           -0.86570785390792        1.04848565596221        0.14946551421683
N           -1.07307297029797       -0.34108704853884        0.24983784208136
C           -0.11941767124186       -1.30112402329774        0.47281402193014
C            1.27740300945613       -0.99493868716833        0.74685805399802
C            1.58233964966328        0.06450698988650        1.60197814935671
C            2.88640461252361        0.40076864037492        1.89144044014946
C            3.94873567671759       -0.31514128365331        1.33586993928150
C            5.30762816009742        0.01263727265082        1.61328930956894
C            6.32536114904777       -0.69896780383866        1.07556705324061
C            6.07492267623225       -1.80427662404609        0.20988316317369
C            7.10984424424804       -2.55222006710620       -0.35511251338235
C            6.83624403565754       -3.61871069465874       -1.19233778620915
C            5.52968837306004       -3.96411817394093       -1.48590962935566
C            4.46311122908507       -3.24454534949491       -0.94316736231945
C            3.10412397711861       -3.56804816389127       -1.22490428157395
C            2.08304363555845       -2.85871245893268       -0.68931571822492
C            2.32068967861644       -1.75793197215692        0.18542100273270
C            3.66382842179864       -1.40729800169708        0.47860002499108
C            4.73176608816590       -2.15094749284976       -0.08362009203250
N           -0.65238889059568       -2.49872483007067        0.47212519338824
C           -1.98749814177612       -2.34399680755898        0.24393876867993
C           -2.85722241602933       -3.50690018961254        0.14320369120699
C           -2.49637118205492       -4.68134950887179        0.80378284030771
C           -3.29646744984248       -5.80484682305944        0.72548662253900
C           -4.46635510165636       -5.77628338645017       -0.01696427724602
C           -4.82286382733312       -4.61966503224092       -0.69159154715767
C           -4.02451510408934       -3.49336114505493       -0.61877503883803
C           -2.27616265576405       -0.99587855091185        0.10776504635446
C           -3.53510755226322       -0.30009632099468       -0.12901554337311
C           -4.64885541326341       -0.59076192106248        0.65865023392837
C           -5.84610294206845        0.06507555098018        0.44439339100446
C           -5.94889501743820        1.02030901175316       -0.55476636840978
C           -4.84804824052077        1.31324549955765       -1.34254669069231
C           -3.64759070035350        0.65928554639076       -1.13383935212818
C           -1.61430854621724        1.93237190719585        0.91318268208634
C           -1.39593722617168        3.29482954752383        0.81110530855469
H           -2.09751760912397        6.01592076591318        0.48096538101798
H           -0.89445975619559        5.90584879325930        1.77923241185591
H           -0.80413995024688        7.20351582140691        0.59480925867935
H            1.49442816962798        5.24480894802439        1.23846281929924
H            2.00022573233033        5.03717441224767       -0.43672892329528
H            1.52865041288493        6.63186436391141        0.14576582647808
H           -1.41848224888139        5.52456181356604       -1.91700969075136
H           -0.20979756320761        6.79911992808408       -1.73523519427441
H            0.26953699049464        5.20542650588385       -2.31230760154792
H            1.06794052846622        3.26210915091386       -1.48428937376332
H            0.68070005140850        0.86314646201635       -1.32054135472054
H            0.77936565665886        0.62218055958921        2.06215718636583
H            3.09382947942410        1.22285508249831        2.56121839248781
H            5.50355981291304        0.84886544249612        2.26961653285049
H            7.35334753953337       -0.44375129458528        1.29163023312448
H            8.13353502936669       -2.28798619323392       -0.13068431178502
H            7.64990692761121       -4.18652248240466       -1.62061193449837
H            5.32204421969032       -4.79760397757595       -2.14179288127078
H            2.90427096416136       -4.40124348234164       -1.88401804815031
H            1.05904128019429       -3.12641482662732       -0.89849117450101
H           -1.58001265818315       -4.69105363447620        1.37477751299857
H           -3.00808345348032       -6.70706500389066        1.24596245841223
H           -5.09441766874517       -6.65343027225294       -0.07532778685500
H           -5.72676803884002       -4.59604124814616       -1.28373589167601
H           -4.30063987056535       -2.60212383911724       -1.16287145198294
H           -4.56404550615946       -1.33455624227793        1.43812901254440
H           -6.70165558431595       -0.16817829563465        1.06137926189718
H           -6.88516985916938        1.53272282513015       -0.71958364969843
H           -4.92409210173784        2.05229658684812       -2.12688520847941
H           -2.79561572311838        0.88268758120325       -1.76018237093853
H           -2.36390347023342        1.55248740933234        1.59205161478843
H           -1.99751256677520        3.94719200726334        1.42167770822500
