75
 energy: -110.002356813547 gnorm: 0.000044652674 xtb: 6.7.1 (edcfbbe)
C            3.91453040675154        3.48761263408030        1.71272762902971
C            2.91756803542372        3.81117806990072        0.59619497520530
C            3.68447685140088        3.83538605293826       -0.73419245554762
C            2.30943406483768        5.19347002341538        0.87635718146138
C            1.79987529751438        2.78593854217198        0.49508178196402
C            0.81815137762929        2.93394671506328       -0.48341579837323
C           -0.19705147537488        2.01339754761075       -0.63946209724829
C           -0.26074819327334        0.90555509558970        0.19792671995345
N           -1.26351241951832       -0.06772690096567        0.03142808414690
C           -1.08482175309391       -1.44639889158613        0.01486146895125
C            0.14777649554436       -2.14176349424677        0.05836486699506
C            0.16616835804975       -3.39020642201846        0.72721899535835
C            1.33448910438644       -3.97660266553205        1.09716701546314
C            2.59809369465335       -3.37135833476600        0.78473507528420
C            3.80675817704386       -3.90633403215620        1.22541541722001
C            5.01599053008098       -3.32841534230241        0.87314497250869
C            5.06138909571143       -2.21966515376700        0.01508281573745
C            6.28317217021670       -1.63121924471108       -0.39630097489077
C            6.29231078251871       -0.55658782471489       -1.26702713534622
C            5.11522658303242       -0.04161306597955       -1.76887627594469
C            3.86344387684755       -0.59177937904266       -1.38559475612003
C            2.64992242597921       -0.13532197268865       -1.91126215449254
C            1.44246222981543       -0.66118722390975       -1.47883539268331
C            1.39262387392946       -1.63458497811960       -0.48239791858336
C            2.60806608002055       -2.21808235373930       -0.04399176733497
C            3.84260432270126       -1.67425461698026       -0.46792110101671
N           -2.26650627568602       -2.06028749549485       -0.00151743686495
C           -3.21475940501940       -1.10713464875552       -0.03022865549686
C           -4.62660702652190       -1.45780971353876       -0.04152629473250
C           -5.02099303399668       -2.65648121502774       -0.63757062138480
C           -6.35222528875415       -3.02439175450057       -0.65722270164006
C           -7.30897939860350       -2.20655097266946       -0.07632549566448
C           -6.92344090626048       -1.02454447583654        0.53602251472828
C           -5.59312764213727       -0.65000845320037        0.55740653023797
C           -2.61516909293800        0.16104587332595       -0.00708194030795
C           -3.21718140497117        1.48260007946030       -0.01827457070009
C           -2.82256362414832        2.46686088417599        0.89017343471708
C           -3.40881045282841        3.71793392917151        0.86034419732545
C           -4.39183560645233        4.00828219070574       -0.07231642139104
C           -4.79509043582936        3.03460603551135       -0.97349813739186
C           -4.21620473222957        1.78089374960519       -0.94850385919432
C            0.68959455069606        0.75658392913911        1.19845214296494
C            1.70562599359083        1.68405551377751        1.33674716791695
H            4.69285288304392        4.24776154415233        1.73329252192074
H            3.42748128769956        3.48110246542783        2.68523178643583
H            4.39063909375261        2.52409058364331        1.54349147929002
H            4.08754247162478        2.84757525544127       -0.94705387542257
H            3.04165286594854        4.12981356448612       -1.55907596585512
H            4.50983680222632        4.54169680941709       -0.67637941007252
H            1.74693114781098        5.17547426423511        1.80779348598590
H            3.09887738947358        5.93670367893812        0.96438647379977
H            1.63911223492050        5.50165940816070        0.07888647883325
H            0.84541687464915        3.77785472796402       -1.15504834356039
H           -0.93149026475513        2.14044205012744       -1.42138141779105
H           -0.78614644503309       -3.81486268902416        1.00835152176326
H            1.33419857578456       -4.89788425318968        1.66063089378336
H            3.79435240276426       -4.78706302593220        1.85207950382130
H            5.94185478570591       -3.74408572075563        1.24414257896847
H            7.20998494540731       -2.04142363315567       -0.02318125691137
H            7.23614747949797       -0.12281014850748       -1.56721099618385
H            5.12858371066026        0.78236312395273       -2.46717197373122
H            2.65681525595055        0.64212083307859       -2.66111177021105
H            0.52527478941909       -0.31511186334414       -1.93134746901846
H           -4.26392306821291       -3.28461535621658       -1.08217001969576
H           -6.64651202320090       -3.95172923632789       -1.12720359110076
H           -8.35035337403461       -2.49288246951650       -0.09346921039798
H           -7.66360593697877       -0.39174884317364        1.00420142440334
H           -5.29887388638923        0.26255054261496        1.05406549987408
H           -2.06909036906027        2.24174991777637        1.63087730926869
H           -3.09720716155117        4.46928888064780        1.57097510052424
H           -4.84503171017445        4.98808923516345       -0.09488752493505
H           -5.56234460146354        3.25417401007705       -1.70131296328918
H           -4.52490756891157        1.02257499056581       -1.65343576992292
H            0.63583152424027       -0.09192627721438        1.86532698931108
H            2.42987143698126        1.52262370820461        2.11751857656826
