  75
       -109.96141644
 C          4.0211871286        3.2750676356        1.6271792806
 C          3.0090596184        3.6554017392        0.5439838538
 C          3.7413220838        3.6585932382       -0.8043451265
 C          2.4704607022        5.0589727380        0.8534540229
 C          1.8469184910        2.6807337423        0.4644938777
 C          0.8486470060        2.8779595726       -0.4874541494
 C         -0.2014093070        1.9954381120       -0.6320960783
 C         -0.2830385428        0.8791376342        0.1918473709
 N         -1.2960148746       -0.0774234448        0.0184086796
 C         -1.1188378279       -1.4574628643       -0.0140980537
 C          0.1202233960       -2.1390745692        0.0169981759
 C          0.1657316070       -3.3890945799        0.6809108557
 C          1.3469174741       -3.9290474521        1.0794596451
 C          2.5920486065       -3.2675676106        0.8089546083
 C          3.8075382766       -3.7390655175        1.2997204701
 C          4.9987725616       -3.1033651322        0.9897985567
 C          5.0239318477       -2.0032268216        0.1198842322
 C          6.2298505626       -1.3615813748       -0.2542698673
 C          6.2204401013       -0.3091280108       -1.1508596916
 C          5.0401919942        0.1364316185       -1.7089018810
 C          3.8018880988       -0.4585352514       -1.3528174564
 C          2.5862687234       -0.0640983110       -1.9230384117
 C          1.3904841824       -0.6341882239       -1.5173666408
 C          1.3558784585       -1.5949237020       -0.5083256246
 C          2.5797126162       -2.1209772032       -0.0281482292
 C          3.8004077254       -1.5247838763       -0.4170225062
 N         -2.3000411138       -2.0686951184       -0.0302331335
 C         -3.2467664208       -1.1157909272       -0.0475526911
 C         -4.6566441604       -1.4692275266       -0.0515817977
 C         -5.0412248850       -2.6859981339       -0.6161693848
 C         -6.3694482714       -3.0626954385       -0.6293473049
 C         -7.3325463612       -2.2359008613       -0.0727264055
 C         -6.9561499515       -1.0360139531        0.5091900568
 C         -5.6287819573       -0.6521661221        0.5247121001
 C         -2.6456250434        0.1533547881       -0.0172777368
 C         -3.2419001231        1.4756693923       -0.0213506976
 C         -2.8272483533        2.4611798667        0.8765886114
 C         -3.4107951903        3.7132424013        0.8544327498
 C         -4.4103035767        4.0040447342       -0.0600106712
 C         -4.8312279773        3.0299205050       -0.9523843711
 C         -4.2552341827        1.7754535218       -0.9355201622
 C          0.6768453025        0.6919609275        1.1776574134
 C          1.7287689650        1.5789205363        1.3022614914
 H          4.8367397056        3.9950630340        1.6284488391
 H          3.5639646490        3.2850325195        2.6136517419
 H          4.4413352205        2.2907609596        1.4351086013
 H          4.1127018901        2.6602362523       -1.0202772212
 H          3.0845855693        3.9664379337       -1.6128640327
 H          4.5851632405        4.3442638026       -0.7698669658
 H          1.9291108390        5.0550483627        1.7972240244
 H          3.2931499812        5.7662847880        0.9307365512
 H          1.7963406485        5.4046690348        0.0749705815
 H          0.8933644024        3.7288574485       -1.1493567553
 H         -0.9465600328        2.1563533948       -1.3969701855
 H         -0.7767202378       -3.8471663965        0.9394006964
 H          1.3704044472       -4.8507991803        1.6412596378
 H          3.8150216635       -4.6145762307        1.9333582521
 H          5.9287979527       -3.4684456821        1.4007438386
 H          7.1605537875       -1.7169256885        0.1625116796
 H          7.1530120635        0.1624864655       -1.4278067587
 H          5.0448500015        0.9344420834       -2.4369731741
 H          2.5834707212        0.7035627348       -2.6831798664
 H          0.4716372805       -0.3305482358       -1.9954268390
 H         -4.2778086291       -3.3193683776       -1.0404913136
 H         -6.6574155924       -4.0041165632       -1.0739744013
 H         -8.3720002572       -2.5288193211       -0.0844353767
 H         -7.7018954588       -0.3968280117        0.9592132730
 H         -5.3424222212        0.2736467495        1.0001814552
 H         -2.0606625185        2.2365322165        1.6035802519
 H         -3.0850024022        4.4657620096        1.5574591836
 H         -4.8616618861        4.9845668961       -0.0756886165
 H         -5.6103114389        3.2511890189       -1.6667190158
 H         -4.5773224720        1.0165448640       -1.6331830791
 H          0.6057416194       -0.1592211919        1.8382409499
 H          2.4633072236        1.3862947516        2.0655078865
