  91
       -144.90291808
 N        -10.4744101632        1.9293058332        0.1021664175
 C         -9.3710963760        1.5826552161        0.1900087024
 C         -8.0604303997        1.1509700654        0.2595192762
 C         -6.9543557064        1.9094600118       -0.2654693193
 C         -7.1017875481        3.3040701108       -0.6899392360
 C         -7.9844871185        4.1777339122       -0.0589087240
 C         -8.0774131616        5.4917484321       -0.4777086946
 C         -7.2970498219        5.9504415672       -1.5260962331
 C         -6.4077854251        5.0893284845       -2.1502681356
 C         -6.3057238237        3.7774003809       -1.7347731001
 N         -5.7792037497        1.3747072430       -0.3931516465
 C         -5.5044489035        0.1130094524       -0.0044900599
 C         -4.2055674029       -0.4296927628       -0.1819445609
 C         -3.1907267676        0.3233134420       -0.8082374695
 C         -1.9420604694       -0.2062957227       -1.0018442876
 C         -1.6506491863       -1.5069140310       -0.5716792326
 N         -0.3743645107       -2.0450716601       -0.7798082661
 C         -0.0991304787       -3.2715356989       -1.3533321399
 C         -0.9717118945       -4.2291011069       -1.8511842568
 C         -0.4260540781       -5.3758171618       -2.3984607775
 C          0.9517866023       -5.5671117211       -2.4605313469
 C          1.8267690325       -4.6040956984       -1.9911301986
 C          1.3027022764       -3.4453935242       -1.4388504214
 C          1.8929171607       -2.2541785947       -0.8892825040
 C          3.1979723642       -1.8371081941       -0.7092317363
 C          3.4442494157       -0.5906356694       -0.1334155701
 C          4.8172279325       -0.1097013907        0.0304435628
 C          5.1140060546        1.2494313211       -0.1675957009
 C          6.3915148864        1.7488449109       -0.0413841293
 C          7.4061594083        0.8666378327        0.3104802379
 C          7.1338269786       -0.5101662999        0.4975615714
 C          5.8447432614       -0.9922505705        0.3577642088
 C          8.3928349162       -1.1347356034        0.8029472341
 C          8.7663235367       -2.4388743115        1.0942606391
 C         10.0963773362       -2.7010026894        1.3621997870
 C         11.0437228686       -1.6804656507        1.3550913490
 C         10.6954083792       -0.3737589462        1.0674857448
 C          9.3654222105       -0.1090926286        0.7757897574
 N          8.7520378594        1.0935174146        0.4780729664
 C          9.3924060199        2.3390635063        0.3776004852
 C         10.5116417901        2.4847705150       -0.4363694155
 C         11.1405723632        3.7127436261       -0.5284292805
 C         10.6561720893        4.8005204814        0.1791464354
 C          9.5391975812        4.6571169656        0.9855681296
 C          8.9082770300        3.4313240264        1.0911442493
 C          2.3608888920        0.2006677521        0.2863437833
 C          1.0532968974       -0.1987027046        0.1235893141
 C          0.8143716213       -1.4223108243       -0.4947651710
 C         -2.6454725067       -2.2612928136        0.0619724152
 C         -3.8976351942       -1.7360183880        0.2507673419
 N         -6.4848203773       -0.6119675505        0.5755462092
 C         -7.6909387254       -0.1582425036        0.7265407582
 C         -8.6557566847       -1.0387405298        1.3930034480
 C         -9.6585468100       -0.5405176876        2.2209916551
 C        -10.5380125466       -1.4070257178        2.8427750182
 C        -10.4312814729       -2.7739248929        2.6466796410
 C         -9.4284939582       -3.2765935874        1.8322495753
 C         -8.5428314094       -2.4181906739        1.2129452539
 H         -8.5871369719        3.8361922591        0.7675480543
 H         -8.7642872092        6.1609130512        0.0188995350
 H         -7.3792810697        6.9760806378       -1.8537264239
 H         -5.7930038539        5.4434285765       -2.9648227603
 H         -5.6197536540        3.0973179622       -2.2169056724
 H         -3.4257401120        1.3224708604       -1.1414743952
 H         -1.1791778134        0.3621236007       -1.5140969886
 H         -2.0399752745       -4.0798426802       -1.8240793295
 H         -1.0834045130       -6.1381863913       -2.7886490616
 H          1.3395262639       -6.4772486634       -2.8926444232
 H          2.8948396980       -4.7456978578       -2.0575467883
 H          4.0162177266       -2.4580828963       -1.0406706408
 H          4.3189214474        1.9178431969       -0.4617816270
 H          6.5976454193        2.7921965699       -0.2270304013
 H          5.6371138477       -2.0382544351        0.5238826747
 H          8.0295898066       -3.2274733353        1.1152351843
 H         10.4083805337       -3.7090551835        1.5898663407
 H         12.0730404530       -1.9135321565        1.5831115156
 H         11.4338431401        0.4135200920        1.0811117333
 H         10.8717956736        1.6391354855       -1.0034130190
 H         12.0078466432        3.8216496302       -1.1622261784
 H         11.1480685147        5.7581047142        0.1023807867
 H          9.1607452715        5.5015343291        1.5419125686
 H          8.0508829724        3.3083384195        1.7362266531
 H          2.5630706731        1.1395258380        0.7794928533
 H          0.2383160055        0.4137232451        0.4778421873
 H         -2.4064729681       -3.2503649771        0.4250774610
 H         -4.6669506125       -2.3056825990        0.7490897927
 H         -9.7429929610        0.5209436685        2.3920407956
 H        -11.3110800401       -1.0107724588        3.4843075488
 H        -11.1254260638       -3.4455739148        3.1293627869
 H         -9.3388698466       -4.3420946519        1.6791857243
 H         -7.7600461987       -2.7985893262        0.5740249526
