91
 energy: -145.039322314796 gnorm: 0.000091729420 xtb: 6.7.1 (edcfbbe)
N           -9.96948663102354        2.56239095210011        0.79540271018165
C           -9.04681986439858        1.95232581476288        0.47891538150343
C           -7.87894733160783        1.24371264801052        0.15971966599207
C           -6.87605518859905        1.79874823565331       -0.66643249923126
C           -7.06928621785598        3.04825210161021       -1.40888238610703
C           -5.99792995363557        3.93087008917644       -1.54143879652224
C           -6.15574376047578        5.11843385476633       -2.22928076843794
C           -7.37688005792654        5.42973547466960       -2.80675476354155
C           -8.43819932480669        4.54539731073222       -2.70031963026130
C           -8.28927203741785        3.35939490794870       -2.00504954269050
N           -5.69888983329520        1.20831874220671       -0.79010491170021
C           -5.48014986671317        0.06818854265002       -0.13728999517829
C           -4.16194699543689       -0.54046508284154       -0.25477468720464
C           -3.17518425797750        0.05823198589929       -1.04136836205812
C           -1.92786669851129       -0.51520753509651       -1.15281097139537
C           -1.63706915237626       -1.70285192324802       -0.47800196672240
N           -0.37579571708149       -2.28682877944741       -0.59444731116691
C           -0.12198692332218       -3.61934998161921       -0.87282987111262
C           -1.00865539600706       -4.64969720410002       -1.15116278563353
C           -0.48230020086937       -5.89575236532857       -1.43752847714467
C            0.89271852881509       -6.11753562583456       -1.45850277262965
C            1.78071434454501       -5.08873248511372       -1.21181629402483
C            1.27498439942300       -3.82831676289788       -0.92238324600794
C            1.88972045707782       -2.55631514287302       -0.65415631592220
C            3.20956537379026       -2.14468151873376       -0.55182218603832
C            3.48607725359072       -0.81853216938703       -0.24245131858483
C            4.87744691689626       -0.35327330416257       -0.12581601989422
C            5.83752086019441       -0.77436380222025       -1.05689477162080
C            7.15275686390621       -0.36244524664705       -0.99319592954880
C            7.51818126880715        0.49845615378808        0.03258406272881
C            6.57128461905453        0.91523665661470        0.99668945201436
C            5.25306782215104        0.49357477235609        0.90918043016912
C            7.28012733394979        1.74582554817189        1.93035527181810
C            6.89890141331533        2.44746514436722        3.06692559444400
C            7.85260944839671        3.18343367908050        3.74178655667909
C            9.16903373412058        3.23758555287872        3.28738302978216
C            9.57218711040254        2.54940640515716        2.15880161577290
C            8.62378179979067        1.78785848359089        1.49001886672921
N            8.75298528432698        1.03111931266884        0.34243435477504
C            9.93894210148328        0.83322595388431       -0.38337279261064
C           11.09298381776950        0.40439326419850        0.26597481113042
C           12.25964025549038        0.21570277752065       -0.45253016204244
C           12.28312034445281        0.44115237604364       -1.81924218551396
C           11.13368625737223        0.86248524449747       -2.46766009397587
C            9.96541985942958        1.06488991189148       -1.75564639302481
C            2.42724547520010        0.07385760894858       -0.02656725469578
C            1.10614188868978       -0.31361273173823       -0.12870160883329
C            0.83741680734486       -1.63310314874554       -0.46351998407257
C           -2.62147009210136       -2.30316716189160        0.30994595925767
C           -3.86897126626393       -1.72907359267749        0.41760463419079
N           -6.39220767123193       -0.55928995245271        0.60341273717476
C           -7.58223007309987       -0.00243338840188        0.75579205679012
C           -8.55338275850743       -0.73284952751727        1.57649544621331
C           -9.90456879941130       -0.77203899136113        1.24017302188227
C          -10.79537313967885       -1.47421144691868        2.03110834699641
C          -10.34982573125879       -2.13921493893203        3.16206345168892
C           -9.00424212936253       -2.11558683423813        3.49413320259178
C           -8.10781471818060       -1.42417090857234        2.70238555975777
H           -5.05407373358882        3.67531811642610       -1.08433095550028
H           -5.32507521822547        5.80264562779638       -2.31678960922737
H           -7.50032881739463        6.35786224292135       -3.34438667376395
H           -9.38662251762065        4.77681095175137       -3.16147168865614
H           -9.11498045244163        2.66516040296071       -1.94460206456555
H           -3.41322739216369        0.96743947604902       -1.57069911076029
H           -1.17549501403423       -0.06326239364314       -1.78103418640113
H           -2.07550732225068       -4.48636301360795       -1.15973328660792
H           -1.15333516643943       -6.71424895109690       -1.65371637724088
H            1.26527817924856       -7.10617820902570       -1.68299943277442
H            2.84685110911423       -5.25545539063748       -1.24739071925732
H            4.01227574046814       -2.85444711496929       -0.68340538421380
H            5.53106257198207       -1.42924451197647       -1.85950743522204
H            7.87386365199636       -0.70771323259124       -1.71865705074027
H            4.53397385433635        0.79916327497618        1.65454277415980
H            5.87551351366878        2.41748994659579        3.41057017526131
H            7.57752160676615        3.73353508327747        4.62997593022732
H            9.88988767627297        3.83395006781152        3.82782786124091
H           10.59064686606074        2.61164949796465        1.80587227743113
H           11.06521287563045        0.21000442919192        1.32801030330545
H           13.15246402821404       -0.11623903404269        0.05678797212612
H           13.19463812099853        0.28864575331132       -2.37751420925006
H           11.14810257379322        1.04333051912222       -3.53250077389225
H            9.07260505200140        1.41279863987627       -2.25392145467825
H            2.65471528106332        1.10215195876694        0.21350208732398
H            0.31131105968903        0.39286272702353        0.05635113183670
H           -2.39055471638613       -3.20875047044928        0.85014315528403
H           -4.63450168863799       -2.18447328727367        1.02578528884404
H          -10.25582768843739       -0.27321512593784        0.34836741145644
H          -11.84035824125954       -1.50157214822455        1.76104808920802
H          -11.05039601672921       -2.67991893932116        3.78053610407821
H           -8.65330340001341       -2.63788216238553        4.37158208159318
H           -7.05736757097874       -1.39545740625106        2.94895313387805
