45
 energy: -68.602265679982 gnorm: 0.000031695706 xtb: 6.7.1 (edcfbbe)
C           -2.33172361075929        2.54570051447064       -2.57067024132925
C           -0.94781396568571        2.58335529000316       -2.60878672800583
C           -0.21811982092645        1.75615471539427       -1.77350097419487
C           -0.84616545448406        0.88716211322999       -0.89592366989712
C           -2.24185321090944        0.85250165036346       -0.86085133240182
C           -2.97564267663351        1.68676690191215       -1.70326765750195
N           -2.89457447082507       -0.00015903944761        0.00021827964756
C           -2.24161899636443       -0.85275323258891        0.86117616595040
C           -2.97517871693110       -1.68711345935825        1.70369848569038
C           -2.33102326658802       -2.54598078001554        2.57099117727637
C           -0.94710331166974       -2.58347373161058        2.60889090592010
C           -0.21763699147797       -1.75617891173000        1.77349971828245
C           -0.84592191056123       -0.88725082824410        0.89602983411628
C           -0.00000002984051        0.00000988266927       -0.00000880380898
C            0.84605200490991        0.89606392485392        0.88711170899466
C            0.21789521529576        1.77362117655302        1.75604421472652
C            0.94748351592875        2.60910604195159        2.58313697048258
C            2.33139795297990        2.57121385689313        2.54543263283852
C            2.97542682226902        1.70381795650493        1.68657462087686
C            2.24174411089613        0.86119844777741        0.85242069378511
N            2.89457442068022        0.00013772827608       -0.00016552465423
C            2.24172798188117       -0.86096576413523       -0.85269613199233
C            2.97539448519386       -1.70351675862095       -1.68693353080680
C            2.33134885829224       -2.57095495243597       -2.54573627605471
C            0.94743367664377       -2.60895566641128       -2.58330421324168
C            0.21786149869621       -1.77353976858328       -1.75612762483458
C            0.84603524851546       -0.89594429519595       -0.88724598890454
H           -2.91164934755595        3.18678066849696       -3.21800115803938
H           -0.43992634286444        3.25335956525054       -3.28540217404015
H            0.86185216083835        1.78157714552394       -1.79923025177447
H           -4.05596956911764        1.65213082371626       -1.66822343881193
H           -3.90290175314870       -0.00022136281563        0.00029371779280
H           -4.05551512384118       -1.65260444491387        1.66882312560895
H           -2.91077242094283       -3.18713696451490        3.21840491480287
H           -0.43903099746276       -3.25342571650380        3.28541945103713
H            0.86234185311811       -1.78147499005727        1.79906061560734
H           -0.86207993364018        1.79919001384745        1.78149118415993
H            0.43951008989245        3.28571184960802        3.25308592888188
H            2.91124164045048        3.21871459074889        3.18641548203952
H            4.05575813699828        1.66894460694000        1.65190421203211
H            3.90290170323771        0.00018127622373       -0.00021896656850
H            4.05572647541446       -1.66855807678348       -1.65237036767015
H            2.91118006394812       -3.21840404758692       -3.18678256551785
H            0.43944719157418       -3.28559403171235       -3.25321037277696
H           -0.86211418542956       -1.79919491793769       -1.78146604771700
