  45
        -68.48934691
 C         -2.4296153532        2.5141446931       -2.5325771625
 C         -1.0260243670        2.5724308723       -2.5977199885
 C         -0.2640215829        1.7615100242       -1.7794536737
 C         -0.8519421955        0.8814205928       -0.8867008844
 C         -2.2706260305        0.8246652412       -0.8236298258
 C         -3.0378197600        1.6521181070       -1.6575764597
 N         -2.8799317932       -0.0345787975        0.0471573366
 C         -2.2168597255       -0.8767425283        0.8950867318
 C         -2.9305749374       -1.7266402508        1.7531330580
 C         -2.2682470334       -2.5727717917        2.6040767761
 C         -0.8619076432       -2.5913623302        2.6199143707
 C         -0.1522889007       -1.7579468994        1.7781667964
 C         -0.7955557771       -0.8932769097        0.9083003991
 C         -0.0001025190        0.0056029221       -0.0038254813
 C          0.8275130743        0.9137128900        0.8693778024
 C          0.2160017224        1.7942527172        1.7458146569
 C          0.9558349986        2.6313382456        2.5578413053
 C          2.3609783653        2.5994430934        2.5040333597
 C          2.9923332818        1.7377945046        1.6453191827
 C          2.2477832616        0.8844697384        0.8169819177
 N          2.8800128359        0.0261407513       -0.0380760417
 C          2.2399887235       -0.8397677100       -0.8795794596
 C          2.9767069484       -1.6866112091       -1.7214639224
 C          2.3374234316       -2.5561412404       -2.5661148210
 C          0.9318468632       -2.6020589777       -2.5924678001
 C          0.1997042751       -1.7724905592       -1.7660603950
 C          0.8193348864       -0.8848874844       -0.9025410438
 H         -3.0234721816        3.1486099101       -3.1722826255
 H         -0.5489816306        3.2515148071       -3.2864790089
 H          0.8146213150        1.8078901352       -1.8314288855
 H         -4.1165896056        1.5958491259       -1.5975437464
 H         -3.8910167398       -0.0486403215        0.0646598149
 H         -4.0120530043       -1.7011918100        1.7306058390
 H         -2.8211155112       -3.2251532273        3.2621655349
 H         -0.3420917184       -3.2574033515        3.2901488464
 H          0.9283114856       -1.7743055038        1.7922180403
 H         -0.8637722451        1.8196144426        1.7901793424
 H          0.4604384983        3.3093563213        3.2346776735
 H          2.9373205352        3.2536308963        3.1398186332
 H          4.0725004862        1.7027317986        1.5929569188
 H          3.8912851079        0.0317757806       -0.0484951828
 H          4.0572807512       -1.6397438792       -1.6911812041
 H          2.9078140665       -3.2055518364       -3.2120097607
 H          0.4302554562       -3.2868530816       -3.2577189001
 H         -0.8802407531       -1.8103172199       -1.7874920048
