  45
  -68.4893469100000       0.588227950998782      !
 C         -2.4296153532        2.5141446931       -2.5325771625
 C         -1.0260243670        2.5724308723       -2.5977199885
 C         -0.2640215829        1.7615100242       -1.7794536737
 C         -0.8519421955        0.8814205928       -0.8867008844
 C         -2.2706260305        0.8246652412       -0.8236298258
 C         -3.0378197600        1.6521181070       -1.6575764597
 N         -2.8799317932       -0.0345787975        0.0471573366
 C         -2.2168597255       -0.8767425283        0.8950867318
 C         -2.9305749374       -1.7266402508        1.7531330580
 C         -2.2682470334       -2.5727717917        2.6040767761
 C         -0.8619076432       -2.5913623302        2.6199143707
 C         -0.1522889007       -1.7579468994        1.7781667964
 C         -0.7955557771       -0.8932769097        0.9083003991
 C         -0.0001025190        0.0056029221       -0.0038254813
 C          0.8275130743        0.9137128900        0.8693778024
 C          0.2160017224        1.7942527172        1.7458146569
 C          0.9558349986        2.6313382456        2.5578413053
 C          2.3609783653        2.5994430934        2.5040333597
 C          2.9923332818        1.7377945046        1.6453191827
 C          2.2477832616        0.8844697384        0.8169819177
 N          2.8800128359        0.0261407513       -0.0380760417
 C          2.2399887235       -0.8397677100       -0.8795794596
 C          2.9767069484       -1.6866112091       -1.7214639224
 C          2.3374234316       -2.5561412404       -2.5661148210
 C          0.9318468632       -2.6020589777       -2.5924678001
 C          0.1997042751       -1.7724905592       -1.7660603950
 C          0.8193348864       -0.8848874844       -0.9025410438
 H         -3.0234721816        3.1486099101       -3.1722826255
 H         -0.5489816306        3.2515148071       -3.2864790089
 H          0.8146213150        1.8078901352       -1.8314288855
 H         -4.1165896056        1.5958491259       -1.5975437464
 H         -3.8910167398       -0.0486403215        0.0646598149
 H         -4.0120530043       -1.7011918100        1.7306058390
 H         -2.8211155112       -3.2251532273        3.2621655349
 H         -0.3420917184       -3.2574033515        3.2901488464
 H          0.9283114856       -1.7743055038        1.7922180403
 H         -0.8637722451        1.8196144426        1.7901793424
 H          0.4604384983        3.3093563213        3.2346776735
 H          2.9373205352        3.2536308963        3.1398186332
 H          4.0725004862        1.7027317986        1.5929569188
 H          3.8912851079        0.0317757806       -0.0484951828
 H          4.0572807512       -1.6397438792       -1.6911812041
 H          2.9078140665       -3.2055518364       -3.2120097607
 H          0.4302554562       -3.2868530816       -3.2577189001
 H         -0.8802407531       -1.8103172199       -1.7874920048
  45
  -68.4886579900000       0.283752663161562      !
 C         -2.2768156864        2.7063259414       -2.3245168960
 C         -0.8925958051        2.5502468983       -2.5391209083
 C         -0.1795051607        1.6277446821       -1.8081258056
 C         -0.7971528517        0.8176882308       -0.8619597572
 C         -2.2034260138        0.9591308179       -0.6697377008
 C         -2.9157096547        1.9122434580       -1.4065015009
 N         -2.8511733410        0.1471467765        0.2185889433
 C         -2.2461289619       -0.8271874603        0.9619714326
 C         -3.0077317711       -1.6527287606        1.8047125682
 C         -2.4028536037       -2.6354851421        2.5447719565
 C         -1.0129153006       -2.8139956841        2.4723903091
 C         -0.2570783221       -2.0057068295        1.6421967347
 C         -0.8426575512       -1.0119664949        0.8787192499
 C          0.0015178768       -0.1283299267        0.0014786621
 C          0.7784172500        0.8460867431        0.8529458884
 C          0.1437344835        1.6467047959        1.7955803445
 C          0.8350679492        2.5952212927        2.5142811495
 C          2.2129399143        2.7887952746        2.2889395477
 C          2.8684566274        2.0052961146        1.3737009169
 C          2.1791498979        1.0247960078        0.6509332654
 N          2.8440720309        0.2217831872       -0.2327979868
 C          2.2633275256       -0.7809464669       -0.9575868992
 C          3.0441939603       -1.5986549678       -1.7901734450
 C          2.4643895370       -2.6111862667       -2.5098117029
 C          1.0803124334       -2.8278310993       -2.4273633093
 C          0.3054070832       -2.0267567869       -1.6079674211
 C          0.8657262371       -1.0037386499       -0.8643729301
 H         -2.8277449862        3.4453677919       -2.8847800500
 H         -0.3956238216        3.1584010169       -3.2786112999
 H          0.8830055481        1.5212361629       -1.9729264123
 H         -3.9788164149        2.0160723250       -1.2331178331
 H         -3.8534069790        0.2513114419        0.3054038580
 H         -4.0785107679       -1.5055740259        1.8508795238
 H         -2.9930168465       -3.2712888279        3.1872486417
 H         -0.5371452687       -3.5779733619        3.0666196085
 H          0.8134319823       -2.1432349713        1.5862893717
 H         -0.9141355180        1.5106599153        1.9686268504
 H          0.3258625597        3.1953474278        3.2519464842
 H          2.7460465322        3.5480819692        2.8392775829
 H          3.9267890438        2.1386060751        1.1915375002
 H          3.8424591152        0.3531785047       -0.3269995179
 H          4.1101439958       -1.4219882558       -1.8441111178
 H          3.0695596145       -3.2416829272       -3.1433618297
 H          0.6240486919       -3.6158200221       -3.0052577409
 H         -0.7604282868       -2.1939363808       -1.5445241891
  45
  -68.4879058400000       0.128019385839657      !
 C         -2.0535087748        2.8767878710       -2.0963318852
 C         -0.7546028017        2.4908549008       -2.4926739046
 C         -0.1106453559        1.4607806660       -1.8645656139
 C         -0.7153944877        0.7550962013       -0.8094946704
 C         -2.0684028543        1.0996711814       -0.4735821996
 C         -2.6990220866        2.1637889179       -1.1117133650
 N         -2.7485697334        0.3357707971        0.4335277921
 C         -2.2400020631       -0.7708455359        1.0580616883
 C         -3.0570526009       -1.5465656464        1.8929529898
 C         -2.5509241507       -2.6585019945        2.5201035432
 C         -1.2111976586       -3.0129379159        2.3436112936
 C         -0.3994137632       -2.2506727241        1.5213051030
 C         -0.8901075403       -1.1380028578        0.8605165053
 C          0.0045608876       -0.2928657178        0.0054704883
 C          0.7002380140        0.7820738649        0.8054243041
 C          0.0814626868        1.4856921181        1.8533620703
 C          0.6997899441        2.5423620672        2.4628264520
 C          1.9852070738        2.9592612158        2.0525438391
 C          2.6458089180        2.2498803614        1.0757232716
 C          2.0424903182        1.1580728281        0.4578298423
 N          2.7394529005        0.3980009616       -0.4393023407
 C          2.2565163778       -0.7279501897       -1.0493426390
 C          3.0885999857       -1.4909755315       -1.8811115338
 C          2.6081782056       -2.6224401403       -2.4931703893
 C          1.2793225031       -3.0106710042       -2.3035346898
 C          0.4525362201       -2.2608221318       -1.4849957329
 C          0.9172808653       -1.1279420988       -0.8399587984
 H         -2.5393388750        3.7104918576       -2.5770314912
 H         -0.2724565546        3.0144188546       -3.3039961434
 H          0.8801342177        1.1766645891       -2.1851393157
 H         -3.7086896110        2.4217085188       -0.8202697941
 H         -3.7202863827        0.5622296506        0.5978027197
 H         -4.0909026433       -1.2589261183        2.0281051100
 H         -3.1873755662       -3.2567674002        3.1545877364
 H         -0.8101766225       -3.8767621551        2.8499238010
 H          0.6374382579       -2.5232056226        1.3873355023
 H         -0.9001450842        1.1793882284        2.1819900374
 H          0.2077995739        3.0644542472        3.2691476272
 H          2.4495369583        3.8136693480        2.5179419846
 H          3.6467596062        2.5309784933        0.7756663439
 H          3.7031094399        0.6498829775       -0.6140168622
 H          4.1136068646       -1.1775795442       -2.0261464894
 H          3.2560014703       -3.2104541382       -3.1256700838
 H          0.8983228586       -3.8904467773       -2.7976835192
 H         -0.5762785290       -2.5584398018       -1.3425971544
