  83
       -128.59028795
 C          6.5063131577        1.0485959701       -1.3900501417
 C          5.6547347447        1.0858437966       -0.1078486176
 C          6.5619237827        1.1892157782        1.1319901923
 C          4.7631791126        2.3128411399       -0.1570024583
 C          5.3376844703        3.5738078841       -0.2353270090
 C          4.5756977169        4.7271865651       -0.2766130777
 C          3.1965726751        4.6294768020       -0.2365733472
 C          2.5988866300        3.3893203538       -0.1601103539
 C          3.3680799832        2.2226724064       -0.1237597183
 N          2.7379488784        0.9939557275       -0.0482177368
 C          1.3183390816        0.9411956472        0.0026665255
 C          0.5739564192        0.9354522227       -1.1666227186
 C         -0.8059535140        0.8556923482       -1.1128526945
 C         -1.4656848332        0.7860505328        0.1068932948
 C         -2.9865247731        0.6372623818        0.1898937902
 C         -3.6199824767        1.5884572614        1.1945254989
 C         -2.9961792688        2.7540697460        1.6193979729
 C         -3.6375774178        3.6161715183        2.4931319882
 C         -4.9139180037        3.3316908084        2.9445243328
 C         -5.5530101648        2.1839911635        2.5060272114
 C         -4.9132167267        1.3236984332        1.6333412563
 C         -3.6107763324        0.9274648305       -1.1596795589
 C         -3.9016133606        2.2354649910       -1.5303783754
 C         -4.4393648634        2.5219082335       -2.7720732121
 C         -4.6846764047        1.5043110931       -3.6819346188
 C         -4.3800546676        0.2047385521       -3.3377095950
 C         -3.8457230507       -0.0931286931       -2.0838261667
 C         -3.5387156568       -1.5032930632       -1.7727531537
 O         -3.4680024221       -2.3606870624       -2.6362515304
 C         -3.3919832565       -1.8094677549       -0.3372704273
 C         -3.5008725588       -3.1425417395        0.0630387117
 C         -3.4348002320       -3.4849796663        1.3965785887
 C         -3.2618233780       -2.4865928676        2.3437593086
 C         -3.1434865367       -1.1653492044        1.9537205051
 C         -3.2036541589       -0.8035333052        0.6121123891
 C         -0.7087880216        0.7969952516        1.2744585017
 C          0.6678381386        0.8836173110        1.2276509553
 C          3.4551474380       -0.1862276347        0.0039796477
 C          4.8530756676       -0.2006713314       -0.0183165495
 C          5.5382644587       -1.4160929005        0.0392067648
 C          4.9024251647       -2.6353278897        0.1186933495
 C          3.5138779815       -2.6387577214        0.1355677390
 C          2.8092217494       -1.4265895804        0.0752305317
 O          1.4558469760       -1.6390499869        0.0964638936
 C          1.2792170786       -2.9820091879        0.1724738769
 C          0.0666292611       -3.6457864171        0.2196871745
 C          0.1066745939       -5.0257442042        0.3005514630
 C          1.3150452203       -5.7181454088        0.3325105483
 C          2.5243401815       -5.0525502785        0.2835215251
 C          2.5091570718       -3.6662257665        0.2026970704
 H          7.1705184727        0.1892297619       -1.3920520762
 H          5.8579969780        0.9831380487       -2.2616358407
 H          7.1110133828        1.9465274652       -1.4791154122
 H          7.1541883504        2.0993948771        1.1040548932
 H          7.2410021621        0.3434266268        1.1895562177
 H          5.9534346261        1.2030718982        2.0342657770
 H          6.4126795992        3.6667674666       -0.2647474469
 H          5.0561536519        5.6915477374       -0.3376684738
 H          2.5832980210        5.5177971199       -0.2646476784
 H          1.5228173422        3.3148810328       -0.1281829894
 H          1.0791515089        0.9829055097       -2.1200086494
 H         -1.3616938561        0.8428461649       -2.0371402934
 H         -2.0049138111        2.9967674580        1.2657474299
 H         -3.1360488028        4.5163209139        2.8169751885
 H         -5.4114009126        4.0038355966        3.6273047297
 H         -6.5545733933        1.9592906085        2.8413707747
 H         -5.4197446710        0.4339542868        1.2873014131
 H         -3.7073404351        3.0413011277       -0.8392612455
 H         -4.6652107398        3.5454951386       -3.0315636543
 H         -5.1033606790        1.7280854326       -4.6512961466
 H         -4.5441425457       -0.6121403276       -4.0245027549
 H         -3.6409659793       -3.8894190109       -0.7041940582
 H         -3.5200423516       -4.5168493460        1.7013008818
 H         -3.2194600660       -2.7385665526        3.3929383290
 H         -3.0254801577       -0.4037556911        2.7092873840
 H         -1.1956472305        0.7406739027        2.2348825964
 H          1.2470592659        0.8887486377        2.1394218329
 H          6.6167860572       -1.4049391421        0.0211450697
 H          5.4599275340       -3.5567983178        0.1635021910
 H         -0.8624709709       -3.1012722765        0.1910648744
 H         -0.8209530260       -5.5766717266        0.3375875049
 H          1.3023444972       -6.7959943967        0.3955677728
 H          3.4594892786       -5.5907651185        0.3069145553
