83
 energy: -128.638366006531 gnorm: 0.000041838719 xtb: 6.7.1 (edcfbbe)
C            6.55159139652617        1.07826893794778       -1.27528633466255
C            5.64360344450547        1.11282544174795       -0.03090533763011
C            6.49446362490651        1.25240171114076        1.24584863530902
C            4.72698163219041        2.31824725952912       -0.13384512215571
C            5.27797411385146        3.59054911555176       -0.21102970831904
C            4.49528024304230        4.72771455346942       -0.29404263219423
C            3.11777020379119        4.60152777961170       -0.29606146334882
C            2.54369486004962        3.34968996030851       -0.22088549768284
C            3.33371603842537        2.19889586292902       -0.14568267980667
N            2.72538081738532        0.95448938773281       -0.07403604926645
C            1.30526427088203        0.88127255955342       -0.01905175099244
C            0.55102824615105        0.94013193451106       -1.18088786732620
C           -0.82999358444387        0.87885941917802       -1.11883702491917
C           -1.48349671043838        0.75988183826193        0.10105019077591
C           -3.00940059793334        0.65538613766654        0.19689319341083
C           -3.60924138310788        1.66351549648145        1.16949003688948
C           -2.92463709047042        2.78836073462915        1.60897959823143
C           -3.53667544979802        3.69606882943742        2.45840055686121
C           -4.84283110020719        3.49843472839279        2.86960732779534
C           -5.54075601862347        2.39028714202635        2.41726169927834
C           -4.93010150589384        1.48415460710521        1.57027368596695
C           -3.63243692004031        0.90274303645664       -1.16216776007141
C           -3.92990603132091        2.19612358771148       -1.57699086575696
C           -4.46631239589485        2.43727613615854       -2.82934296794169
C           -4.70178709114690        1.38852128704435       -3.70655962493534
C           -4.38977848939983        0.10247344985404       -3.31949795064821
C           -3.85861213197563       -0.15019825315186       -2.05351278113444
C           -3.54705980357933       -1.54238766077753       -1.68670453868033
O           -3.44039316925123       -2.43110556030145       -2.52248874954067
C           -3.44326789565741       -1.80131460032227       -0.24130577886790
C           -3.58184119003282       -3.11725944982061        0.20548416792663
C           -3.56321387371860       -3.40886105602131        1.55256281789503
C           -3.41126635133788       -2.37630383576265        2.46635205766457
C           -3.26215450911297       -1.07182816510046        2.03109588209383
C           -3.26970701204067       -0.76128086882910        0.67546414377630
C           -0.71528915422609        0.69421835071809        1.25997425484630
C            0.66254976794075        0.76286787340843        1.20597552262252
C            3.46739243360156       -0.20982294486332        0.00383371874075
C            4.86641297111234       -0.19068788148267        0.03848260259803
C            5.57862201209028       -1.38831809561730        0.12918700144992
C            4.97095071703329       -2.62324162086340        0.18152045614429
C            3.58392277841591       -2.66087471985183        0.12863291357653
C            2.85143484425041       -1.46758095113878        0.03746838286055
O            1.50102578901121       -1.71949114133081       -0.01577362675392
C            1.36018845986741       -3.07136723831237        0.04370425065024
C            0.16976587119517       -3.77648467065298        0.01959505006406
C            0.25140944552597       -5.15570922589432        0.09552869227288
C            1.47801621053155       -5.80904949024489        0.19141472040241
C            2.66501847125233       -5.10311009729428        0.21293696387933
C            2.60732029368999       -3.71738340109638        0.13751297295454
H            7.24222099851490        0.24118883415204       -1.23080169958789
H            5.94498616340792        0.97523887477283       -2.17349767865647
H            7.13126235445621        1.99333032187241       -1.35616872214825
H            7.07029696708498        2.17327339595007        1.22718425186955
H            7.18594887995668        0.42073416582591        1.34552055567999
H            5.84844687341185        1.26900050145870        2.12191893401615
H            6.35123112316754        3.70525966616984       -0.20485847726260
H            4.95839428112872        5.70114831370651       -0.35350290660461
H            2.48663704206491        5.47614088072169       -0.35534834999098
H            1.46882669169849        3.25648185233492       -0.22089605658754
H            1.04708967257871        1.03253216674954       -2.13614413658327
H           -1.39073890803602        0.92524592073047       -2.03957478477475
H           -1.90930442909835        2.96502772830151        1.28697754852665
H           -2.98765872085686        4.56380158577860        2.79442542874267
H           -5.31787867647585        4.20686114005136        3.53213796469145
H           -6.56500707127204        2.23257210493811        2.72200909960991
H           -5.48144546902715        0.62536189375304        1.21394812657513
H           -3.74096487027597        3.02489910525349       -0.91195109316071
H           -4.69860556332588        3.45002899893478       -3.12355902992640
H           -5.11831146536105        1.57633729177527       -4.68462160304032
H           -4.54736210725041       -0.73812867461241       -3.98006160410114
H           -3.71239323908612       -3.89157509449910       -0.53732493423199
H           -3.67134277128055       -4.42796451784918        1.89138360908296
H           -3.40990796400620       -2.58857326850319        3.52518106152361
H           -3.16207659863947       -0.28275298537690        2.76079328855833
H           -1.19444819420412        0.59685539527764        2.22087120885218
H            1.24720024974562        0.71586466965655        2.11319666516466
H            6.65606958135886       -1.35038727775555        0.16053713908492
H            5.54807238182336       -3.53092854483587        0.25398673103081
H           -0.77696594184981       -3.26620857030301       -0.05861831471621
H           -0.65709737036550       -5.73834237316725        0.07656744800406
H            1.49698130316354       -6.88733126828116        0.24840818004744
H            3.61542063033989       -5.60935785757995        0.28546585903612
