83
 energy: -128.558592633223 gnorm: 0.000064594101 xtb: 6.7.1 (edcfbbe)
C            6.52889841689971        1.18622010410871       -1.18137592439983
C            5.65018010052680        1.06870748177224        0.08085858813658
C            6.53612963063644        1.03765872554766        1.34291155710846
C            4.74995450702869        2.28255523111906        0.15349160310877
C            5.30843140400111        3.55129180891182        0.23932455963075
C            4.52813672559426        4.69123779787088        0.30219640991851
C            3.14535479910781        4.57841458723406        0.27724271538028
C            2.56224495304425        3.33463938123957        0.19197749722149
C            3.35056384272435        2.17599519055252        0.13095812221341
N            2.73728342253692        0.94249838139153        0.04426627125074
C            1.31253460985175        0.88660845369493       -0.00319761690745
C            0.66020688750394        0.86991472054630       -1.22917484134418
C           -0.71861632788992        0.82236717659603       -1.27062341211697
C           -1.47636263092296        0.80639139537709       -0.10206461326874
C           -2.99940958104138        0.69803186368971       -0.17675711429139
C           -3.62525582983790        1.72527983176297       -1.10585606936560
C           -2.97045421375444        2.88337165815833       -1.50558335703861
C           -3.60765179316057        3.81026755895464       -2.31417634871519
C           -4.91158021939067        3.59938730513336       -2.72576091281951
C           -5.58130990418565        2.45866463589519       -2.31282651177650
C           -4.94492839285250        1.53424766134312       -1.50610542815846
C           -3.25407649919325       -0.71164074658471       -0.68693523780702
C           -3.22912061994552       -0.98246891519038       -2.04481378967912
C           -3.33811812013082       -2.27721419258338       -2.53017141621235
C           -3.46583394924924       -3.33702309898244       -1.63946955930345
C           -3.51277334992269       -3.09422814029843       -0.28895660786560
C           -3.42972303465235       -1.77882354959616        0.21400570379621
C           -3.59904586664359       -1.57265407999084        1.63069324420158
O           -3.64738830302074       -2.54670411640174        2.44923169419316
C           -3.81695509326625       -0.21111796195964        2.05730563506028
C           -4.28212332515353        0.01907917778280        3.36745685046611
C           -4.55252451503410        1.29260676731078        3.80534046782948
C           -4.35604348574675        2.37486927009510        2.95568358036480
C           -3.87953774965129        2.16124479201982        1.67019765523057
C           -3.60531996215450        0.88743182258066        1.20191304980065
C           -0.80675750099854        0.82311733994284        1.11625865457158
C            0.57496257108935        0.86285462904802        1.17012708764902
C            3.45702441205678       -0.22607178910131       -0.00542270840417
C            4.86564870077978       -0.22478530378861        0.00613642217875
C            5.56123436347757       -1.43060867455897       -0.05416517806805
C            4.93281878881412       -2.65773775039817       -0.12311938039449
C            3.54380404424249       -2.67979794173770       -0.12874005739564
C            2.81951154307332       -1.47785789134688       -0.06813609873727
O            1.47638382432847       -1.71003111914330       -0.07817167610744
C            1.31453342862736       -3.06012396921412       -0.14625564280212
C            0.11291382568188       -3.74673116102597       -0.17803070351430
C            0.18161108217848       -5.12622224778517       -0.25216204027993
C            1.40309189967309       -5.79734567585161       -0.29353392412895
C            2.60037734548478       -5.11024299100462       -0.25937305944827
C            2.55629105214359       -3.72373649472198       -0.18374789943368
H            7.11135037697593        2.10195880312985       -1.15831199461946
H            7.21382053929378        0.34732103293788       -1.25376640903011
H            5.90274803351695        1.19797611795613       -2.07122389385614
H            7.21659875791366        0.19258401908300        1.31709399498163
H            5.91446245795685        0.95244692560104        2.23192858395603
H            7.12505668399801        1.94611902571946        1.42049759099812
H            6.38114691320932        3.65976031116358        0.25746421451597
H            4.99482834999565        5.66175701208545        0.36936397785721
H            2.52347135836613        5.45909143026663        0.32472065676483
H            1.48804885755556        3.24546010218876        0.17432582440486
H            1.23387288468370        0.88987993267930       -2.14402753999761
H           -1.21083121563719        0.80208207916012       -2.22960924302126
H           -1.95793418374086        3.07106961999757       -1.18005579464344
H           -3.08157467359187        4.70386551582366       -2.61816215973653
H           -5.40746681138322        4.32199871941093       -3.35721153510359
H           -6.60432995757250        2.28982084068070       -2.61670127584530
H           -5.47228915657171        0.64883601907140       -1.17918182754961
H           -3.13594655248173       -0.16722317937197       -2.74798996872045
H           -3.31996415683297       -2.45690129837537       -3.59454406099665
H           -3.53975772852819       -4.35094585963141       -2.00663811181974
H           -3.63483997303560       -3.89552337246028        0.42638180369178
H           -4.42824899971653       -0.84065437931484        4.00600963500092
H           -4.91900510720732        1.44782349772133        4.81045416609721
H           -4.56368555418383        3.37939174385413        3.29266286316833
H           -3.70798750859899        3.01016006772583        1.02411925093693
H           -1.36335803383254        0.80631699529785        2.04019129467047
H            1.08051960417205        0.87339875738644        2.12461643893182
H            6.63871271348182       -1.41159670473235       -0.04765116366878
H            5.49882480094724       -3.57360665213607       -0.16917129935952
H           -0.83066123368839       -3.22611385918923       -0.14402051107709
H           -0.73522343114477       -5.69496248950992       -0.27563310386018
H            1.40753620785167       -6.87543222465442       -0.35176750097689
H            3.54492432703448       -5.63045681422023       -0.28945017401516
