83
 energy: -128.558595389062 gnorm: 0.000034646100 xtb: 6.7.1 (edcfbbe)
C            6.53383821638997        1.09629840232377       -1.29831391363825
C            5.63891838333401        1.10131847384954       -0.04210023805778
C            6.50790521900247        1.20416011085236        1.22795160809259
C            4.73129597059874        2.31034034464703       -0.10296243393244
C            5.28194570058660        3.58408180363364       -0.16039257741189
C            4.49458584153663        4.71967007038096       -0.21341853054339
C            3.11240771457472        4.59710094724003       -0.20882332789714
C            2.53697134509453        3.34820237598399       -0.15119408627769
C            3.33251323704119        2.19412005214803       -0.09860907119693
N            2.72686763156382        0.95533544483509       -0.03796247702964
C            1.30276793925044        0.88949135563537        0.01280583377758
C            0.55898402939596        0.88332482518506       -1.15676381028312
C           -0.82221304391543        0.83374741815812       -1.09592629503919
C           -1.48466289299030        0.79036534928225        0.12562258375126
C           -3.00666424726247        0.67392839180658        0.20828132789417
C           -3.62947459496534        1.68503580238508        1.15695372080195
C           -2.97604321076486        2.84008571404324        1.56766587224063
C           -3.61077810023892        3.75366587059279        2.39313600955120
C           -4.91094304800124        3.53238266936905        2.81115221858785
C           -5.57912198780204        2.39435786453709        2.38838371844599
C           -4.94519734748727        1.48325250016917        1.56470822603806
C           -3.62257676021432        0.88187858281390       -1.16325788783338
C           -3.90439857470222        2.16160132650239       -1.61052831820539
C           -4.39073935675626        2.39276564703952       -2.88926207722074
C           -4.58959294568593        1.32264612981157       -3.75361162461928
C           -4.31186838726683        0.04367057676269       -3.33672163495362
C           -3.83658074307651       -0.20446764484097       -2.03348048028125
C           -3.61097633427923       -1.57141147650058       -1.62893345870188
O           -3.66248386993887       -2.53334555355479       -2.46152518869651
C           -3.42930300494943       -1.79842160148213       -0.21698311216629
C           -3.50216252175107       -3.12175629036254        0.26630280296906
C           -3.44441953326141       -3.38497774936988        1.61254132253749
C           -3.31634186021121       -2.33818223855674        2.51840906665744
C           -3.21713427789494       -1.03563707586823        2.05220212515469
C           -3.25222111930613       -0.74424042938316        0.69881513469743
C           -0.72058340216282        0.78860028221713        1.29010245552841
C            0.65754346928443        0.84513361859234        1.24186024687630
C            3.45395481902546       -0.20910798240237       -0.00056948976059
C            4.86250656843386       -0.19837946969741        0.00451973539591
C            5.56523035388410       -1.40057533775096        0.05345924139701
C            4.94417148326327       -2.63274818260639        0.09316191256411
C            3.55535025524190       -2.66411482309198        0.07871602584390
C            2.82407020016421       -1.46586543735469        0.03127658870108
O            1.48250062409484       -1.70650780066986        0.01811178944479
C            1.32855826313316       -3.05864375955553        0.05648915673058
C            0.13098266371947       -3.75302061720912        0.05640234960124
C            0.20742170365263       -5.13332157395836        0.10189667234683
C            1.43253430115811       -5.79763223965385        0.14609128062762
C            2.62578546306115       -5.10269048500018        0.14451485354509
C            2.57397456942358       -3.71516891394067        0.09813807849770
H            7.22034712535875        0.25589518782260       -1.28048019613594
H            5.91897378280135        1.02005308642990       -2.19290795130325
H            7.11618572723410        2.01036041856579       -1.35777094820186
H            7.08610728998907        2.12284393788617        1.22287067095186
H            7.19658962126502        0.36775053878649        1.29280706919088
H            5.87536821014479        1.19952567920914        2.11332427334397
H            6.35401362517547        3.70011355025693       -0.16353690263565
H            4.95526839878025        5.69436074025881       -0.25761276193672
H            2.48503658331622        5.47418544494000       -0.25021441270163
H            1.46329433322633        3.25143536169224       -0.14943036393537
H            1.05907366914693        0.91512030581581       -2.11364647121374
H           -1.38416310343367        0.83069663851292       -2.01678761456657
H           -1.96659252387682        3.03602874389711        1.23755437853926
H           -3.08588349515635        4.64520870476080        2.70507699723408
H           -5.40512785707853        4.24500570142935        3.45515250465838
H           -6.59916028164594        2.21737771949989        2.69758448695230
H           -5.47146361422869        0.60011079401416        1.23000783471658
H           -3.73106377541605        3.00132518903473       -0.95304933600963
H           -4.60424804952174        3.40149180254024       -3.20957510112491
H           -4.96384610306879        1.49151002053293       -4.75363762987569
H           -4.45968654901278       -0.80691457079569       -3.98702819554639
H           -3.62581114893359       -3.91245387994468       -0.46049127814294
H           -3.51040380941589       -4.40479871789625        1.96457530213543
H           -3.29045868344806       -2.53385981000629        3.57981967583031
H           -3.12367666587342       -0.23073874759586        2.76715973156299
H           -1.20732434220572        0.74779250302165        2.25118544535698
H            1.23655682072421        0.85124878985338        2.15355659099497
H            6.64255189722090       -1.37454660719759        0.06117124620733
H            5.51573469999811       -3.54552417094102        0.13104580900840
H           -0.81518653080096       -3.23716279756578        0.02077756667225
H           -0.70590632476905       -5.70817944844612        0.09985301616537
H            1.44305189746044       -6.87669312931242        0.18055550687733
H            3.57302838231047       -5.61782502845601        0.17690107557610
