  62
       -201.52791371
 F         -0.8614184068       -0.7174833846        3.7952632114
 C         -0.5328228848       -0.3619335590        2.5666516002
 C          0.6852549619        0.2812021602        2.3429837639
 F          1.5936112996        0.5431886169        3.2769800025
 C          0.9787672520        0.6140539891        0.9019827475
 C          0.6720140866        2.0854691763        0.6011986234
 C          0.7539390021        2.6069723506       -0.6934217897
 F          1.1757496298        1.8453705105       -1.7056939389
 C          0.4410304849        3.9273060269       -0.9962428549
 F          0.5150146533        4.3386407933       -2.2592479057
 C          0.0405060047        4.7995622787        0.0097463027
 F         -0.2607586194        6.0594697750       -0.2665568181
 C         -0.0333168378        4.3174446633        1.3110181347
 F         -0.4022472050        5.1195151384        2.3024371081
 C          0.2731645183        2.9863325303        1.5902542665
 F          0.1461292827        2.6107254873        2.8613456279
 C          2.4875679202        0.3436110047        0.7652655213
 C          3.4597329173        1.2508014944        0.3339740353
 F          3.1817795496        2.5114781858       -0.0023262512
 C          4.8126169642        0.9158471530        0.2561961949
 F          5.6694734233        1.8295658804       -0.1832659669
 C          5.2657656588       -0.3386129542        0.6431289483
 F          6.5470772210       -0.6607691128        0.5572029240
 C          4.3352194965       -1.2340174130        1.1596436606
 F          4.7109383816       -2.4361341030        1.5861845824
 C          2.9955144598       -0.8768267735        1.2345605265
 F          2.1807672045       -1.7678830407        1.8216916683
 C         -0.0390285744       -0.3960160351        0.1046043378
 C         -0.7812594626        0.2223643497       -1.0680286757
 C         -1.6739557370        1.2822927234       -0.8451223688
 F         -1.9089577059        1.7242916493        0.4043881486
 C         -2.3915598193        1.9195454186       -1.8474965267
 F         -3.1858704633        2.9395922052       -1.5267297797
 C         -2.2829450184        1.4900678338       -3.1661689240
 F         -2.9580615109        2.0872129540       -4.1367142067
 C         -1.4727805242        0.3907673753       -3.4195774072
 F         -1.3762441416       -0.0950140205       -4.6508401250
 C         -0.7585269421       -0.2325533465       -2.3958132147
 F         -0.0833377044       -1.3134493864       -2.7819075256
 C          0.6875331887       -1.6658468942       -0.3151260521
 C          1.8038011837       -1.6319781869       -1.1611254349
 F          2.2208145087       -0.4725046541       -1.6800319700
 C          2.5091564165       -2.7666934619       -1.5427694793
 F          3.5760301250       -2.6356017572       -2.3281841955
 C          2.1094617442       -4.0202063217       -1.0939374333
 F          2.7723944858       -5.1117197805       -1.4464144522
 C          0.9971276737       -4.0951560096       -0.2643436835
 F          0.5778962541       -5.2725761113        0.1866988672
 C          0.3148800728       -2.9410129037        0.1157510830
 F         -0.7077353150       -3.1269647886        0.9507255233
 B         -1.2245815889       -0.6863588695        1.2640630236
 C         -2.6801461673       -1.0634061215        1.0472626969
 C         -3.6731113617       -0.7431373588        2.0210728644
 F         -3.3152377303       -0.0407529542        3.0936199905
 C         -5.0010717394       -1.1049002973        1.9003296997
 F         -5.8770058850       -0.7804069219        2.8489702510
 C         -5.4432411952       -1.7964101174        0.7633494097
 F         -6.7200880490       -2.1365837687        0.6274079525
 C         -4.5110416743       -2.1083596101       -0.2393852756
 F         -4.9118410055       -2.7552749757       -1.3324027955
 C         -3.1886072906       -1.7472636923       -0.0881628915
 F         -2.3351452829       -2.0909049597       -1.0684025488
