  128
  -203.954697704000       0.614305821571293      !
 N         -7.2060083795        6.6296209868        0.2021124593
 C         -6.6788831212        5.6144875919        0.1081722422
 C         -6.0341757747        4.3637350933        0.0002002349
 C         -6.2223248279        3.4170905591        0.9857884371
 C         -5.5863311598        2.1786846433        0.9008938516
 C         -4.7658546311        1.8861042907       -0.1642827422
 N         -4.1656848557        0.6200619669       -0.2371430701
 C         -4.8566938281       -0.5723737478       -0.3485966446
 C         -6.3082296460       -0.6281695895       -0.4305150183
 C         -6.9835763689        0.2742565465       -1.2520508512
 C         -8.3582842846        0.2775420285       -1.3347392307
 C         -9.1197147797       -0.6290005727       -0.5949556911
 C        -10.5431142384       -0.6423982793       -0.6532339340
 C        -11.2657343548       -1.5389225728        0.0572432527
 C        -10.6285422833       -2.5038863530        0.8910507762
 C        -11.3548906942       -3.4395642045        1.6296664088
 C        -10.7090878064       -4.3636973592        2.4304695233
 C         -9.3291281942       -4.3768219125        2.5151995948
 C         -8.5624214206       -3.4593812160        1.7947212266
 C         -7.1395023696       -3.4398934247        1.8590777601
 C         -6.4122166722       -2.5430266222        1.1531951920
 C         -7.0382453946       -1.5809236340        0.3077766028
 C         -8.4540490522       -1.5717016776        0.2274206114
 C         -9.2134094327       -2.5098166496        0.9699385362
 N         -4.0486666157       -1.5988201330       -0.3956590684
 C         -2.7886219600       -1.0971502717       -0.3081107418
 C         -1.5607071876       -1.8115954506       -0.3257996867
 C         -1.5289572497       -3.2042400240       -0.4572911733
 C         -0.3344968446       -3.8744133405       -0.4725694961
 C          0.8699809787       -3.1661112882       -0.3508504563
 C          2.1547677053       -3.8779618414       -0.3411646005
 C          2.2838096613       -5.1045040156        0.3091879063
 C          3.4931507558       -5.7680022548        0.3427797020
 C          4.6086069564       -5.2209756338       -0.2852971080
 N          5.8419011757       -5.8832037001       -0.2446188139
 C          6.0664492318       -7.2034914292       -0.5782406578
 C          5.1811511939       -8.1547860808       -1.0646917698
 C          5.6779905039       -9.4124612901       -1.3483083121
 C          7.0237671772       -9.7220551921       -1.1629987113
 C          7.9135479474       -8.7733943289       -0.7003942734
 C          7.4381734999       -7.5018104701       -0.4079004125
 C          8.0626460917       -6.2965627211        0.0610406373
 C          9.3632875506       -5.9711799695        0.4231195824
 C          9.6253896350       -4.6915352448        0.8698498333
 C          8.6079814020       -3.7450847374        0.9708722504
 C          7.3068554783       -4.0441911661        0.6151778938
 C          7.0416248689       -5.3220472536        0.1439373508
 C          4.4879045111       -4.0035164807       -0.9497293865
 C          3.2770647054       -3.3424217033       -0.9717536347
 C          0.8360126105       -1.7878074503       -0.2272624718
 C         -0.3641448899       -1.0670543029       -0.2151567987
 C         -0.4112487906        0.3784925117       -0.0688643765
 C          0.7549916686        1.1430752809        0.0405089804
 C          0.7359208147        2.5157718910        0.2084185859
 C          1.9890796169        3.2773812836        0.2856902165
 C          2.1120968680        4.5033844771       -0.3655849802
 C          3.2885313686        5.2222569858       -0.3082942291
 C          4.3757880609        4.7275814793        0.4068838236
 N          5.5729824761        5.4513000725        0.4648812479
 C          6.2649702780        5.9569276893       -0.6176003519
 C          5.9881939241        5.8470791752       -1.9728399072
 C          6.8719057252        6.4299524336       -2.8608098059
 C          8.0105847809        7.1005502336       -2.4195248040
 C          8.3032514923        7.1931416020       -1.0735853464
 C          7.4300896136        6.6153620361       -0.1613091594
 C          7.4282840032        6.5025189781        1.2704511897
 C          8.2831494798        6.9560115245        2.2664793046
 C          7.9660305986        6.6879675777        3.5830443126
 C          6.8061684160        5.9902386524        3.9132125067
 C          5.9408405491        5.5277610183        2.9404170265
 C          6.2667193216        5.7734907980        1.6142443693
 C          4.2613485780        3.5054026081        1.0640686223
 C          3.0813719630        2.7925441752        1.0024263908
 C         -0.4993496379        3.1667545575        0.3086500968
 C         -1.6644774311        2.4541458832        0.2009372059
 C         -1.6530773675        1.0697763658       -0.0237752367
 C         -2.8290291226        0.2912222056       -0.1953245525
 C         -4.5673853849        2.8269567444       -1.2141680619
 C         -3.7733860284        2.5416939798       -2.3443953550
 C         -3.6045275985        3.4748206492       -3.3294639202
 C         -4.2184925670        4.7314126750       -3.2302075148
 C         -5.0056053868        5.0330949702       -2.1526866591
 C         -5.2041215881        4.0909273955       -1.1243493851
 H         -6.8598834214        3.6367419325        1.8288624014
 H         -5.7363408212        1.4426376145        1.6764629611
 H         -6.4196964420        0.9668836576       -1.8598753983
 H         -8.8568035323        0.9843606133       -1.9823493186
 H        -11.0314506769        0.0863148635       -1.2847134878
 H        -12.3452973815       -1.5426184812        0.0066683458
 H        -12.4337011100       -3.4350356089        1.5683411451
 H        -11.2875705319       -5.0812587429        2.9938077241
 H         -8.8300753353       -5.1014831670        3.1423889310
 H         -6.6487040183       -4.1657421616        2.4918152160
 H         -5.3349158433       -2.5527572702        1.2001646195
 H         -2.4699649993       -3.7238987028       -0.5508456418
 H         -0.3134279951       -4.9466383549       -0.5974432877
 H          1.4332542718       -5.5276056321        0.8227003907
 H          3.5875190552       -6.7042177965        0.8725931634
 H          4.1401169977       -7.9188795752       -1.2271297303
 H          5.0085963976      -10.1717318567       -1.7247625005
 H          7.3725548208      -10.7175045399       -1.3939060141
 H          8.9593648087       -9.0085416945       -0.5717788293
 H         10.1488121607       -6.7089867421        0.3599789763
 H         10.6301213928       -4.4178032996        1.1552057990
 H          8.8405296297       -2.7567560805        1.3392282556
 H          6.5211635789       -3.3100825986        0.7131935034
 H          5.3452962604       -3.5894317456       -1.4592851905
 H          3.1934372795       -2.4094705230       -1.5096171769
 H          1.7760786665       -1.2736193128       -0.1100012686
 H          1.7170126700        0.6626819511       -0.0305030410
 H          1.2791106806        4.8898009364       -0.9345025534
 H          3.3695790202        6.1768381555       -0.8064904953
 H          5.1176499026        5.3141154866       -2.3249834708
 H          6.6773319844        6.3606297631       -3.9209206501
 H          8.6754390494        7.5446595501       -3.1451650544
 H          9.1937464568        7.6991068109       -0.7323717814
 H          9.1736621973        7.5104295622        2.0115780009
 H          8.6181609406        7.0300775263        4.3726349955
 H          6.5758602052        5.8102734286        4.9529347940
 H          5.0351548272        5.0034366493        3.2063089870
 H          5.1067019328        3.1150928976        1.6108837222
 H          2.9997769668        1.8527742962        1.5287074392
 H         -0.5322875589        4.2302149237        0.4932883327
 H         -2.6063404051        2.9677669116        0.3067843536
 H         -3.3005149876        1.5745441351       -2.4263885668
 H         -2.9961925238        3.2456741978       -4.1911731326
 H         -4.0712618411        5.4589908959       -4.0137711362
 H         -5.4893538252        5.9956933771       -2.0726904346
  128
  -203.954230924100       0.374858567901625      !
 N         -7.2040502058        6.5931230976       -0.5191699495
 C         -6.6665573909        5.5795365859       -0.4932809885
 C         -6.0170157440        4.3275478659       -0.4466604908
 C         -6.2611464555        3.4773075515        0.6119550080
 C         -5.6214439330        2.2400233667        0.6806371493
 C         -4.7430621181        1.8511847004       -0.3049615925
 N         -4.1426076777        0.5864445987       -0.2247495705
 C         -4.8290450252       -0.6138915027       -0.2388895966
 C         -6.2771190685       -0.6814082918       -0.3664706978
 C         -6.9175076474        0.1256015328       -1.3066691715
 C         -8.2877102756        0.1154517534       -1.4448401984
 C         -9.0794901490       -0.7081696891       -0.6426304135
 C        -10.4994439716       -0.7319479860       -0.7560257875
 C        -11.2513710583       -1.5469421762        0.0192245057
 C        -10.6496007532       -2.4129566574        0.9785634916
 C        -11.4065668495       -3.2630256518        1.7866083209
 C        -10.7946292967       -4.0926384506        2.7083679817
 C         -9.4189873668       -4.0943922347        2.8473029053
 C         -8.6223667679       -3.2600917261        2.0611344729
 C         -7.2028318797       -3.2315067814        2.1779406891
 C         -6.4464655942       -2.4150410755        1.4078647214
 C         -7.0373080155       -1.5510547277        0.4400894912
 C         -8.4487854723       -1.5541421370        0.3031566612
 C         -9.2386552762       -2.4075085029        1.1129431658
 N         -4.0192448687       -1.6374035051       -0.1678586834
 C         -2.7615114561       -1.1251415553       -0.1034552980
 C         -1.5291118950       -1.8315807508       -0.0642595456
 C         -1.4896987759       -3.2299705365       -0.0851710463
 C         -0.2901538948       -3.8912851819       -0.0996555628
 C          0.9102011223       -3.1665547450       -0.1053516551
 C          2.1977195173       -3.8718883920       -0.1622940837
 C          2.4116238537       -5.0304940008        0.5821844137
 C          3.6158650694       -5.7014881217        0.5206054606
 C          4.6346927443       -5.2371860644       -0.3073847875
 N          5.8495248476       -5.9280311074       -0.3911484225
 C          5.9929045720       -7.2829452927       -0.6170142698
 C          5.0235423884       -8.2500961843       -0.8417661052
 C          5.4452777796       -9.5457952622       -1.0706509622
 C          6.7978980898       -9.8790439372       -1.0863302233
 C          7.7678157704       -8.9168463467       -0.8889836299
 C          7.3685223193       -7.6071877610       -0.6570843660
 C          8.0833371832       -6.3807199747       -0.4405030130
 C          9.4327391249       -6.0636820034       -0.3578457776
 C          9.7906506240       -4.7530105520       -0.1135929341
 C          8.8220964126       -3.7675730911        0.0641314050
 C          7.4735720594       -4.0586007320       -0.0132698154
 C          7.1076172097       -5.3692765948       -0.2849248459
 C          4.4298977023       -4.0814232824       -1.0565132928
 C          3.2294871769       -3.4059646894       -0.9753877317
 C          0.8698762606       -1.7838019243       -0.0707585632
 C         -0.3359862611       -1.0730380028       -0.0386672711
 C         -0.3922948995        0.3778771405        0.0342313465
 C          0.7665677415        1.1527677409        0.1492604210
 C          0.7361185644        2.5316759287        0.2545031640
 C          1.9805102223        3.3041538525        0.3615449283
 C          2.1243827570        4.5120801040       -0.3187679614
 C          3.2884393337        5.2465493428       -0.2225459016
 C          4.3437868377        4.7858111222        0.5602444447
 N          5.5260136039        5.5289861653        0.6603971443
 C          6.2555803431        6.0325291937       -0.3983252238
 C          6.0472266457        5.8898500006       -1.7627591137
 C          6.9569892101        6.4794373824       -2.6194303241
 C          8.0556263191        7.1883947690       -2.1385276008
 C          8.2814626127        7.3132285573       -0.7823902615
 C          7.3808645674        6.7293734525        0.0987624844
 C          7.3145727072        6.6426249229        1.5307399706
 C          8.1104633071        7.1372800758        2.5555600535
 C          7.7397485766        6.8856113198        3.8612695217
 C          6.5839465855        6.1638311943        4.1512849002
 C          5.7763363278        5.6611448878        3.1491674643
 C          6.1566434024        5.8903511717        1.8345535596
 C          4.2100682270        3.5796841822        1.2429557537
 C          3.0416511132        2.8520262307        1.1437030847
 C         -0.5044559340        3.1803884284        0.2731363923
 C         -1.6626745573        2.4570583917        0.1625929316
 C         -1.6380440529        1.0627645368        0.0152034002
 C         -2.8069550536        0.2671890194       -0.1231943149
 C         -4.4848981646        2.6897397271       -1.4263595345
 C         -3.6303269038        2.3035480355       -2.4797709749
 C         -3.4039226818        3.1422886384       -3.5356901158
 C         -4.0191919123        4.4009720382       -3.5877997011
 C         -4.8660350440        4.7977679296       -2.5893614959
 C         -5.1241245910        3.9540622756       -1.4911250434
 H         -6.9457538440        3.7721878573        1.3928640606
 H         -5.8150256334        1.5800944836        1.5129768607
 H         -6.3283882289        0.7511498412       -1.9616624806
 H         -8.7586986514        0.7465964626       -2.1846020069
 H        -10.9608819918       -0.0782024768       -1.4825832399
 H        -12.3280554985       -1.5591562046       -0.0736041416
 H        -12.4821789812       -3.2669599979        1.6833787594
 H        -11.3965029184       -4.7445537919        3.3245580269
 H         -8.9468509603       -4.7451216754        3.5692568436
 H         -6.7389444792       -3.8839359358        2.9040448175
 H         -5.3717383555       -2.4172543600        1.4970782990
 H         -2.4285339170       -3.7614739477       -0.1040107282
 H         -0.2615341845       -4.9699635525       -0.1392546039
 H          1.6338508887       -5.3931905632        1.2379567850
 H          3.7806865764       -6.5819445565        1.1235608175
 H          3.9735512038       -7.9993562035       -0.8513020954
 H          4.7093967209      -10.3167829494       -1.2452823580
 H          7.0866858285      -10.9038450061       -1.2658750906
 H          8.8166090643       -9.1709681777       -0.9182688998
 H         10.1824781814       -6.8308486120       -0.4792110349
 H         10.8344583962       -4.4843220083       -0.0492012982
 H          9.1318373885       -2.7535899982        0.2702494072
 H          6.7310561465       -3.2908397437        0.1443670592
 H          5.2091942934       -3.7304951560       -1.7164723455
 H          3.0754325114       -2.5227911004       -1.5780588291
 H          1.8105222832       -1.2570971153       -0.0550996540
 H          1.7316245276        0.6732036918        0.1461654387
 H          1.3176629389        4.8729421403       -0.9398930047
 H          3.3832782508        6.1885780901       -0.7416860656
 H          5.2090706591        5.3269148469       -2.1453902049
 H          6.8149483904        6.3850603687       -3.6859268024
 H          8.7422169647        7.6370182889       -2.8407549268
 H          9.1414559801        7.8486317308       -0.4094412518
 H          8.9969440917        7.7107102460        2.3304239361
 H          8.3455995934        7.2594862019        4.6730228185
 H          6.3107038674        5.9962430571        5.1826438048
 H          4.8729550902        5.1186564040        3.3844710452
 H          5.0311285332        3.2134794773        1.8410232230
 H          2.9438988468        1.9269215356        1.6926618691
 H         -0.5481489901        4.2514127047        0.4036629312
 H         -2.6100521104        2.9694958207        0.2129204135
 H         -3.1567045762        1.3339739121       -2.4474074935
 H         -2.7486984269        2.8359577783       -4.3369283559
 H         -3.8257370213        5.0537781713       -4.4253203740
 H         -5.3518403294        5.7619728918       -2.6261236894
  128
  -203.950882097700       1.083561052708253E-002 !
 N         -8.0071119087        4.7103609925        2.1947756872
 C         -7.2910104865        3.9518110790        1.7157684252
 C         -6.3954717463        3.0177026441        1.1559324183
 C         -5.2851601457        2.6278961939        1.8793953556
 C         -4.4605403064        1.6130147339        1.4020142776
 C         -4.7029744161        1.0321913503        0.1739198648
 N         -4.0059678716       -0.1266467445       -0.1955638002
 C         -4.6064078796       -1.3614747810       -0.4248847647
 C         -6.0412248967       -1.4981964885       -0.6381933418
 C         -6.4674282267       -2.0948513124       -1.8244886233
 C         -7.7781333608       -1.9936117203       -2.2368820341
 C         -8.6961357078       -1.2341688127       -1.5058264858
 C        -10.0093363464       -0.9561486815       -1.9825870958
 C        -10.8590366675       -0.1706398058       -1.2801611865
 C        -10.4847934846        0.3851440937       -0.0214326970
 C        -11.3315414057        1.2224942166        0.7071312249
 C        -10.9360193492        1.7395373075        1.9272971143
 C         -9.6986397329        1.4245818270        2.4584574579
 C         -8.8174623845        0.5967180177        1.7621692373
 C         -7.5433153607        0.2279687077        2.2835336006
 C         -6.6651825243       -0.4915649517        1.5462973405
 C         -6.9838989390       -0.9093390811        0.2212819157
 C         -8.3009131808       -0.7044131174       -0.2534696529
 C         -9.2032593853        0.0831294315        0.5000297394
 N         -3.7267543007       -2.3130375660       -0.5619511015
 C         -2.5052622137       -1.7306851532       -0.4089154941
 C         -1.2296587564       -2.3545195617       -0.4498834610
 C         -1.0944811688       -3.7324805070       -0.6534412839
 C          0.1455058050       -4.3145398605       -0.6775638140
 C          1.2926967016       -3.5293987645       -0.4932093305
 C          2.6298999399       -4.1361297157       -0.5283945515
 C          3.6255681888       -3.7225784524        0.3554184715
 C          4.8883694934       -4.2765166887        0.3129986356
 C          5.1917667204       -5.2550340994       -0.6299291889
 N          6.4793934308       -5.8013779583       -0.6899358788
 C          6.7897802605       -7.1462208757       -0.7135190432
 C          5.9511725503       -8.2485834027       -0.6297503102
 C          6.5306774675       -9.5027232526       -0.6483597322
 C          7.9114535504       -9.6651802847       -0.7392237847
 C          8.7524771634       -8.5720890614       -0.7986556923
 C          8.1936727768       -7.3009257903       -0.7816432585
 C          8.7492354944       -5.9768707307       -0.8070508709
 C         10.0455815091       -5.4856904561       -0.8887256181
 C         10.2346806652       -4.1185340520       -0.9171966380
 C          9.1503584313       -3.2446186229       -0.8804335777
 C          7.8516429475       -3.7090625385       -0.7987867056
 C          7.6563338726       -5.0818657089       -0.7454937200
 C          4.2033036074       -5.6786172622       -1.5143040357
 C          2.9387127398       -5.1292841686       -1.4562999516
 C          1.1570711045       -2.1673304915       -0.2898446639
 C         -0.0918302972       -1.5360655904       -0.2647425045
 C         -0.2419193843       -0.1011993283       -0.0914398284
 C          0.8667179771        0.7383749697        0.0547892179
 C          0.7554702238        2.1129668895        0.1617477880
 C          1.9554341887        2.9407464553        0.3342113073
 C          2.0972955333        4.1523654547       -0.3392240346
 C          3.2337896748        4.9199788995       -0.1859545544
 C          4.2534432862        4.5005833612        0.6648421692
 N          5.4053518946        5.2776056206        0.8284751650
 C          6.7059824119        4.8202636834        0.7446368099
 C          7.1804200326        3.5524338875        0.4394385091
 C          8.5492041868        3.3683561319        0.3958267977
 C          9.4326547144        4.4175588636        0.6391525043
 C          8.9669793516        5.6870301094        0.9172208926
 C          7.5951366380        5.8967113875        0.9671079847
 C          6.7812838727        7.0567549342        1.2009529469
 C          7.0707937196        8.3838044569        1.4898426847
 C          6.0237650724        9.2618174412        1.6861227231
 C          4.7020918428        8.8275121639        1.6139590580
 C          4.3890654643        7.5124003182        1.3280008424
 C          5.4367245329        6.6306642250        1.1034236597
 C          4.1147409966        3.2973392913        1.3523117948
 C          2.9837723430        2.5268641115        1.1796613297
 C         -0.5160427932        2.6939569609        0.0887649774
 C         -1.6294236194        1.9036477624       -0.0312407711
 C         -1.5277322121        0.5055892145       -0.0887267727
 C         -2.6487717138       -0.3628667027       -0.1853806195
 C         -5.7398333739        1.5245083470       -0.6641333326
 C         -5.9245704063        1.0712662410       -1.9864582942
 C         -7.0130106853        1.4690489895       -2.7112625896
 C         -7.9573095957        2.3424162684       -2.1527524871
 C         -7.7658563879        2.8571292753       -0.9006684208
 C         -6.6438992641        2.4807700629       -0.1368063045
 H         -5.0891194182        3.0692764704        2.8452031081
 H         -3.6489619503        1.2488996590        2.0146586115
 H         -5.7357199924       -2.6016042656       -2.4357565337
 H         -8.0898327763       -2.4512794398       -3.1643983813
 H        -10.3047038257       -1.3772269597       -2.9331669275
 H        -11.8468018401        0.0502129348       -1.6592292608
 H        -12.3036106993        1.4682004626        0.3042486253
 H        -11.6003127307        2.3922745358        2.4738661149
 H         -9.4013186927        1.8264514344        3.4160530855
 H         -7.2943461414        0.5402989765        3.2881005008
 H         -5.7122317165       -0.7879098806        1.9606363280
 H         -1.9941476439       -4.3136395068       -0.7831840668
 H          0.2453834918       -5.3807171253       -0.8159261798
 H          3.3979759487       -2.9780243814        1.1041313326
 H          5.6445396455       -3.9664930583        1.0188328098
 H          4.8814405892       -8.1326742576       -0.5409545163
 H          5.8989847727      -10.3766452502       -0.5873800092
 H          8.3253228828      -10.6623435718       -0.7531562114
 H          9.8233980883       -8.6972992676       -0.8521883290
 H         10.8846505500       -6.1634006729       -0.9344363469
 H         11.2346723799       -3.7158670102       -0.9791516716
 H          9.3283110939       -2.1800240669       -0.9211645123
 H          7.0170569951       -3.0241534428       -0.7900064729
 H          4.4400806062       -6.4246165000       -2.2581513129
 H          2.1873951798       -5.4503020432       -2.1625105818
 H          2.0590186085       -1.5882074111       -0.1771104027
 H          1.8585916759        0.3178326175        0.0590109236
 H          1.3218653355        4.4803507022       -1.0156955790
 H          3.3475584980        5.8406734811       -0.7382834831
 H          6.5049040729        2.7368356650        0.2295599388
 H          8.9425322030        2.3896741015        0.1633467589
 H         10.4955544079        4.2324629610        0.5977023873
 H          9.6508935301        6.5044972540        1.0882366994
 H          8.0953330117        8.7157727199        1.5632687145
 H          6.2267495081       10.2985848944        1.9091178353
 H          3.9037034182        9.5335429866        1.7890421174
 H          3.3617506710        7.1822089747        1.2937475059
 H          4.8907689315        2.9818426899        2.0334456754
 H          2.8798815165        1.6042923248        1.7317620077
 H         -0.6208467872        3.7668676934        0.1500809668
 H         -2.6011368016        2.3678462115       -0.0957283807
 H         -5.1919451849        0.4093275766       -2.4225018517
 H         -7.1514640729        1.1101093590       -3.7196419980
 H         -8.8277560881        2.6215970184       -2.7264499199
 H         -8.4700938755        3.5567776196       -0.4752620730
