  57
        -95.35086565
 O          3.4294598219        2.5447807640       -0.1754223255
 C          3.9754664630        1.4153253433       -0.0827631274
 C          5.4036911102        1.3036336148        0.1673106831
 C          6.0994438781        2.4905729025        0.4871953838
 C          7.4305857777        2.4624193316        0.8192856225
 C          8.1339867935        1.2593412491        0.8475595794
 C          7.4794255989        0.0871996667        0.5108513240
 C          6.1427107275        0.1194614875        0.1694364672
 S          5.4046181788       -1.3989688696       -0.4052310894
 O          5.6431094319       -1.5183797036       -1.8272204915
 O          5.8483700632       -2.5106726315        0.4028523579
 C          3.6709304450       -1.1050778065       -0.1372431763
 C          2.8318129921       -2.1978187700       -0.0477154974
 C          1.4631630509       -2.0252430584       -0.0002827398
 C          0.9228471965       -0.7250352415       -0.0623964547
 C         -0.5231098307       -0.5099515129       -0.0312168513
 C         -1.1119599034        0.5141846493       -0.7812379639
 C         -2.4725387011        0.7143365487       -0.7675673345
 C         -3.3025305660       -0.1037302197        0.0086234903
 N         -4.6790141963        0.0903865636        0.0239507080
 C         -5.5424072850       -1.0033041454        0.1624678205
 C         -5.2565739199       -2.2129686218       -0.4735475681
 C         -6.1132402393       -3.2869533485       -0.3339535233
 C         -7.2619878023       -3.1723286430        0.4337617606
 C         -7.5512790289       -1.9720235401        1.0642884155
 C         -6.7007008635       -0.8920405129        0.9338397081
 C         -5.2139819375        1.3780910863       -0.0953542954
 C         -6.3894581597        1.5862699523       -0.8197709520
 C         -6.9198484072        2.8564837011       -0.9277448797
 C         -6.2906091393        3.9328187530       -0.3212366255
 C         -5.1226792392        3.7309563444        0.3979690030
 C         -4.5841691550        2.4648130105        0.5148161080
 C         -2.7192627393       -1.1237009258        0.7699047439
 C         -1.3577778663       -1.3190080415        0.7468766489
 C          1.7763016448        0.3596688853       -0.1284553944
 C          3.1766669859        0.2067778797       -0.1297153324
 H          5.5351526011        3.4109249688        0.4698920852
 H          7.9364184155        3.3845801322        1.0654450243
 H          9.1787029361        1.2390301017        1.1147467442
 H          7.9865264298       -0.8649441859        0.4984793795
 H          3.2774737246       -3.1802777733       -0.0410721402
 H          0.8120295803       -2.8839791428        0.0312929720
 H         -0.4905379688        1.1346785713       -1.4079637866
 H         -2.9122483830        1.4890220542       -1.3784135636
 H         -4.3703447291       -2.2943876328       -1.0862075257
 H         -5.8866346728       -4.2158287846       -0.8349161439
 H         -7.9286233216       -4.0140122040        0.5394703401
 H         -8.4401364644       -1.8784092062        1.6695297696
 H         -6.9153915107        0.0386858795        1.4390254054
 H         -6.8688111849        0.7495236436       -1.3070750258
 H         -7.8254558626        3.0077396096       -1.4952302856
 H         -6.7087477167        4.9236105718       -0.4076207231
 H         -4.6315995083        4.5630792585        0.8790764883
 H         -3.6850236323        2.3031455386        1.0913511551
 H         -3.3451244385       -1.7431669983        1.3956841211
 H         -0.9244918351       -2.0908311588        1.3643502105
 H          1.4000758740        1.3713446599       -0.1323950807
  57
        -95.35071773
 O          3.3019091829       -2.5927644936       -0.1726758406
 C          3.8888621618       -1.4850328267       -0.0778979552
 C          5.2997357671       -1.3624196420       -0.4076780508
 C          5.9155479518       -2.4635505244       -1.0420994457
 C          7.2142767378       -2.3902965296       -1.4792831349
 C          7.9619393450       -1.2267841928       -1.3045335369
 C          7.3892023793       -0.1467585458       -0.6551763813
 C          6.0860262310       -0.2262176520       -0.2087167178
 S          5.4539392326        1.1269628663        0.7661888615
 O          5.7460885249        0.8660764095        2.1588214755
 O          5.9268995634        2.3879089673        0.2453462954
 C          3.7007088086        0.9790956938        0.5070066038
 C          2.9112959236        2.1013468915        0.6605729851
 C          1.5353192505        1.9991642229        0.6076501445
 C          0.9390146046        0.7369317277        0.4181659713
 C         -0.5123403617        0.5835958674        0.3304203826
 C         -1.3003251713        1.5349630226       -0.3249795555
 C         -2.6595096872        1.3655118524       -0.4558478703
 C         -3.2860871932        0.2307678421        0.0731381859
 N         -4.6532579835        0.0357286920       -0.0823149466
 C         -5.1643706785       -1.2600522896       -0.2275048346
 C         -4.4658685520       -2.2165113859       -0.9669987653
 C         -4.9766816723       -3.4918110156       -1.1057684966
 C         -6.1852289714       -3.8307427487       -0.5172445547
 C         -6.8841254157       -2.8828519787        0.2142433438
 C         -6.3817911879       -1.6050250094        0.3620585489
 C         -5.5280196945        1.1277547222       -0.1217020505
 C         -6.6147062522        1.1260259473       -0.9982972181
 C         -7.4776371273        2.2034378757       -1.0326547721
 C         -7.2717021980        3.2930317953       -0.2005418311
 C         -6.1944099728        3.2985236571        0.6721958658
 C         -5.3261004634        2.2256572920        0.7168634123
 C         -2.5058918547       -0.7135932908        0.7520950425
 C         -1.1471507314       -0.5403513854        0.8703710096
 C          1.7423120151       -0.3755738241        0.2553736847
 C          3.1470596312       -0.2828996197        0.2489133716
 H          5.3161433908       -3.3508875526       -1.1794847468
 H          7.6585899760       -3.2439831156       -1.9698092262
 H          8.9797027609       -1.1694307802       -1.6569481907
 H          7.9359650349        0.7658801138       -0.4764984022
 H          3.4010663164        3.0453451729        0.8419117101
 H          0.9216936794        2.8727782640        0.7591207525
 H         -0.8293357000        2.3980266224       -0.7701491787
 H         -3.2464411324        2.0934584250       -0.9967241075
 H         -3.5332724708       -1.9456977789       -1.4404016627
 H         -4.4313306148       -4.2219472371       -1.6841115938
 H         -6.5803481517       -4.8284731221       -0.6285262853
 H         -7.8224961612       -3.1423071573        0.6801726989
 H         -6.9168652745       -0.8698793378        0.9457563601
 H         -6.7637703417        0.2834551145       -1.6580121078
 H         -8.3102512919        2.1957522220       -1.7194867336
 H         -7.9475230829        4.1334655515       -0.2316954440
 H         -6.0337810638        4.1397583405        1.3291678573
 H         -4.4968166083        2.2194993466        1.4093293514
 H         -2.9832949725       -1.5739563236        1.1975067764
 H         -0.5628574588       -1.2678018697        1.4122329108
 H          1.3190270378       -1.3504550361        0.0671225461
  57
        -95.35070377
 O          3.4542429956        2.5480967674       -0.1718074350
 C          3.9934235984        1.4148973541       -0.0773917264
 C          5.4326180715        1.2957255027        0.0907147423
 C          6.1595008448        2.4896552389        0.2970146471
 C          7.5106415079        2.4642182964        0.5343734226
 C          8.2047055718        1.2562670254        0.5787274956
 C          7.5174748750        0.0756038100        0.3560427223
 C          6.1599807481        0.1046593024        0.1089523526
 S          5.3801958728       -1.4407738912       -0.3227490560
 O          5.5830666624       -1.6780539160       -1.7356125084
 O          5.8252484893       -2.4910971254        0.5630780110
 C          3.6557980406       -1.1022613756       -0.0428291973
 C          2.8024953494       -2.1805333276        0.0810308479
 C          1.4371044252       -1.9884109475        0.1422699967
 C          0.9133123217       -0.6821393163        0.0659057640
 C         -0.5309738760       -0.4537291955        0.0942039645
 C         -1.1082549056        0.5746541011       -0.6591222077
 C         -2.4696437989        0.7705772896       -0.6714218401
 C         -3.3117011064       -0.0617213551        0.0749497386
 N         -4.6925797784        0.1080208029        0.0420978759
 C         -5.5330122508       -1.0100741031        0.0896105753
 C         -5.1753047677       -2.1872778586       -0.5712540096
 C         -6.0090473719       -3.2868772530       -0.5261864505
 C         -7.2059072842       -3.2308725605        0.1714736682
 C         -7.5655473230       -2.0639592813        0.8281677456
 C         -6.7386430563       -0.9584992960        0.7919003650
 C         -5.2435338122        1.3891285807       -0.0627117740
 C         -6.3914490734        1.6036948212       -0.8285946614
 C         -6.9331401573        2.8702156598       -0.9231055799
 C         -6.3426149928        3.9366616771       -0.2625054569
 C         -5.2018511096        3.7285992320        0.4976361548
 C         -4.6524777300        2.4660906114        0.6016358309
 C         -2.7405063496       -1.0779895666        0.8492583440
 C         -1.3775354888       -1.2646195873        0.8576857446
 C          1.7815278294        0.3883588754       -0.0301427571
 C          3.1797420502        0.2157890401       -0.0593758194
 H          5.6023482526        3.4140851971        0.2686925805
 H          8.0402532676        3.3925056173        0.6913039128
 H          9.2659031564        1.2377328241        0.7705921837
 H          8.0147810443       -0.8817862124        0.3616770064
 H          3.2340265902       -3.1691041308        0.1022215694
 H          0.7759487468       -2.8382077598        0.1963451980
 H         -0.4773628696        1.2009140443       -1.2702942345
 H         -2.9003954518        1.5487320348       -1.2843250030
 H         -4.2514200493       -2.2225544121       -1.1303992329
 H         -5.7261168870       -4.1894951449       -1.0461507847
 H         -7.8546596144       -4.0923298876        0.2031599254
 H         -8.4928344632       -2.0162366672        1.3785818817
 H         -7.0102772421       -0.0535405098        1.3160348582
 H         -6.8402967937        0.7754661794       -1.3578023017
 H         -7.8162920035        3.0269362735       -1.5235402325
 H         -6.7695100028        4.9245586724       -0.3390976431
 H         -4.7416824638        4.5526951668        1.0212702350
 H         -3.7745552426        2.2987239149        1.2085994761
 H         -3.3783504706       -1.7044115751        1.4558924930
 H         -0.9541861730       -2.0345770617        1.4842216318
 H          1.4209780599        1.4055765769       -0.0473016178
  57
        -95.35066564
 O          3.4126402147        2.0040177053        1.6471371869
 C          3.9608806285        1.1087690356        0.9556138457
 C          5.3746600923        0.8082431034        1.1182743113
 C          6.0398519397        1.3942495873        2.2175626382
 C          7.3465590510        1.0834489674        2.4992753536
 C          8.0541350402        0.1828095144        1.7046065968
 C          7.4324186109       -0.3781697250        0.6025346367
 C          6.1213166650       -0.0570281290        0.3166107267
 S          5.4253953848       -0.6725650090       -1.2052254091
 O          5.6934001198        0.2873739100       -2.2538870858
 O          5.8702681043       -2.0233262802       -1.4546789297
 C          3.6843908738       -0.6585186319       -0.8450638494
 C          2.8583995956       -1.5101924804       -1.5509722108
 C          1.4875022001       -1.4214704323       -1.4162053542
 C          0.9327902900       -0.4404407876       -0.5704488666
 C         -0.5163253291       -0.3159265995       -0.4129471992
 C         -1.3364398619       -1.4485681252       -0.3911593945
 C         -2.6995221685       -1.3365362413       -0.2430013195
 C         -3.2974844208       -0.0769596076       -0.1202848171
 N         -4.6775489518        0.0394772894        0.0179444261
 C         -5.3910398558       -0.9245504045        0.7393240215
 C         -6.6532871382       -1.3378930775        0.3088880170
 C         -7.3519192138       -2.2880090271        1.0272307211
 C         -6.8070125539       -2.8386054587        2.1771098837
 C         -5.5537752746       -2.4311759421        2.6080012043
 C         -4.8466393286       -1.4805346002        1.8988833486
 C         -5.3568823495        1.1130604441       -0.5671495700
 C         -6.4452515435        1.6978547452        0.0835399138
 C         -7.1176347494        2.7514490030       -0.5032100631
 C         -6.7172648364        3.2384815206       -1.7379496350
 C         -5.6359811033        2.6622786117       -2.3868364473
 C         -4.9580978415        1.6060222127       -1.8115467472
 C         -2.4831647322        1.0609587668       -0.1402953310
 C         -1.1194451805        0.9383861523       -0.2757509245
 C          1.7725342911        0.3926468219        0.1435712397
 C          3.1740049649        0.2811574728        0.0617079701
 H          5.4718337296        2.0797108608        2.8283684394
 H          7.8290057798        1.5394089585        3.3513472872
 H          9.0784173359       -0.0656341755        1.9335248987
 H          7.9461350004       -1.0618971854       -0.0550551404
 H          3.3159095897       -2.2219585050       -2.2204706852
 H          0.8453821505       -2.0647234896       -1.9963950929
 H         -0.8916020965       -2.4277802340       -0.4818377470
 H         -3.3200100912       -2.2209443190       -0.2419802929
 H         -7.0691799360       -0.9206029787       -0.5968711520
 H         -8.3237415170       -2.6067111388        0.6821249839
 H         -7.3562170394       -3.5812079588        2.7347790069
 H         -5.1270351040       -2.8493716581        3.5069371012
 H         -3.8778269816       -1.1481542787        2.2427952724
 H         -6.7456327894        1.3290867803        1.0536854781
 H         -7.9541853661        3.2000732464        0.0105911102
 H         -7.2448876053        4.0627020912       -2.1922484697
 H         -5.3234266559        3.0311476210       -3.3518650123
 H         -4.1270239061        1.1441442755       -2.3246775435
 H         -2.9320288089        2.0372412421       -0.0306820215
 H         -0.5056319747        1.8254924064       -0.2914204102
 H          1.3823042362        1.1245706678        0.8342080355
  57
        -95.35057613
 O          3.3751341971       -2.2830993822        1.2614396595
 C          3.9446038174       -1.2988036265        0.7225374611
 C          5.3733660480       -1.0892670458        0.8912881934
 C          6.0430730002       -1.9141500945        1.8222295548
 C          7.3739396490       -1.7299234006        2.1009137674
 C          8.1026550901       -0.7227612375        1.4703590980
 C          7.4738691175        0.0793912060        0.5337836045
 C          6.1371680420       -0.1124762300        0.2498758182
 S          5.4300143859        0.8520641901       -1.0729431406
 O          5.8954043163        2.2173450993       -1.0038390292
 O          5.6723726048        0.1673604217       -2.3250964299
 C          3.6878910163        0.7759793726       -0.7186212560
 C          2.8679880031        1.7338740453       -1.2804955982
 C          1.4968460617        1.6489421444       -1.1432345162
 C          0.9331409911        0.5647885981       -0.4420338038
 C         -0.5181775525        0.4267461523       -0.3160557948
 C         -1.3703350759        0.8026069308       -1.3595141855
 C         -2.7353663795        0.6703342292       -1.2473828079
 C         -3.3031395522        0.1544368367       -0.0770876857
 N         -4.6833514878        0.0212965465        0.0416824781
 C         -5.2270437642       -1.0517234439        0.7557893026
 C         -4.6329011355       -2.3140763942        0.6930215484
 C         -5.1749382758       -3.3693670312        1.3993896647
 C         -6.3113783865       -3.1859004121        2.1722052715
 C         -6.9057344190       -1.9348279190        2.2357677859
 C         -6.3714863920       -0.8715135204        1.5355561476
 C         -5.5328348396        0.9617848834       -0.5511878939
 C         -6.7335042487        0.5567808088       -1.1378759148
 C         -7.5700148019        1.4906182718       -1.7166647099
 C         -7.2252983687        2.8335657506       -1.7212802577
 C         -6.0337855795        3.2401514458       -1.1404066017
 C         -5.1901338290        2.3156706486       -0.5572701913
 C         -2.4570460776       -0.2244044912        0.9715274646
 C         -1.0934979079       -0.0902944476        0.8495687210
 C          1.7668448016       -0.3802492133        0.1234401150
 C          3.1695115906       -0.2975621529        0.0174162143
 H          5.4594763378       -2.6819769449        2.3076767766
 H          7.8594177924       -2.3713858353        2.8217996434
 H          9.1465964584       -0.5746426640        1.6971698181
 H          8.0010355186        0.8587588613        0.0059625607
 H          3.3307686574        2.5422296530       -1.8249503914
 H          0.8645437718        2.4180379836       -1.5570992617
 H         -0.9495351004        1.1715917261       -2.2821813346
 H         -3.3764693326        0.9415001021       -2.0735580277
 H         -3.7583421897       -2.4596827463        0.0757922525
 H         -4.7114496732       -4.3422494700        1.3390252836
 H         -6.7315149347       -4.0135000083        2.7222145466
 H         -7.7859891917       -1.7836372643        2.8418273056
 H         -6.8230076966        0.1080422358        1.5986699134
 H         -6.9926212596       -0.4921233266       -1.1484136913
 H         -8.4925283742        1.1666654186       -2.1739400152
 H         -7.8818670496        3.5597274937       -2.1748127709
 H         -5.7633938819        4.2851467460       -1.1328039588
 H         -4.2704254059        2.6324684829       -0.0869349102
 H         -2.8852059768       -0.6008566654        1.8889708070
 H         -0.4585653333       -0.3609834304        1.6786893482
 H          1.3720942296       -1.2339617259        0.6525227939
  57
        -95.35050106
 O          3.3634958049       -2.3989265162        0.9910394547
 C          3.9436956930       -1.3645825639        0.5660453890
 C          5.3944534054       -1.3069660070        0.5157318736
 C          6.0964282631       -2.4717097064        0.9017573306
 C          7.4665451880       -2.5212729400        0.8619908886
 C          8.2072744133       -1.4202549613        0.4357807893
 C          7.5418074461       -0.2661263198        0.0608151611
 C          6.1629920315       -0.2166463948        0.1063921848
 S          5.4176010063        1.3499953092       -0.3153268766
 O          5.6632920195        2.2867461273        0.7594791067
 O          5.8651735361        1.7697610541       -1.6238735246
 C          3.6752366137        0.9831491271       -0.3725601115
 C          2.8445542312        1.9799467966       -0.8452876474
 C          1.4736770036        1.8183876615       -0.8301727761
 C          0.9204310108        0.6256177111       -0.3241270029
 C         -0.5287630610        0.4326677883       -0.2713787547
 C         -1.3677022158        0.9579248554       -1.2596768615
 C         -2.7330598347        0.8005978595       -1.1921072037
 C         -3.3138272586        0.1031094747       -0.1270153180
 N         -4.6957297132       -0.0421235790       -0.0446399881
 C         -5.2469729265       -1.2205290648        0.4699639113
 C         -4.6577023665       -2.4546051514        0.1867359044
 C         -5.2084532113       -3.6159699063        0.6911001721
 C         -6.3482209185       -3.5669069274        1.4790644591
 C         -6.9355505192       -2.3437188355        1.7641911092
 C         -6.3926861055       -1.1755305901        1.2670397608
 C         -5.5354523384        0.9946848978       -0.4643288380
 C         -6.7465607488        0.7101388997       -1.0987799109
 C         -7.5738115428        1.7388201249       -1.5039411842
 C         -7.2088971098        3.0589479327       -1.2883397229
 C         -6.0066974287        3.3463885508       -0.6602155253
 C         -5.1731022677        2.3261354688       -0.2474297700
 C         -2.4800378647       -0.4406256826        0.8567701382
 C         -1.1165866675       -0.2762771689        0.7821656977
 C          1.7647771366       -0.3715099152        0.1234752983
 C          3.1677003863       -0.2334636101        0.1010258998
 H          5.5036661628       -3.3145023160        1.2247240463
 H          7.9748975677       -3.4254436421        1.1633966394
 H          9.2845045999       -1.4602355480        0.4025745254
 H          8.0726877802        0.6134800774       -0.2685018307
 H          3.2991085827        2.8898380782       -1.2051750833
 H          0.8331392048        2.6190121704       -1.1633424257
 H         -0.9369288563        1.4724955100       -2.1048336573
 H         -3.3648434627        1.1977561217       -1.9733488822
 H         -3.7806116620       -2.4924011448       -0.4428547157
 H         -4.7499266965       -4.5652423159        0.4594851376
 H         -6.7761226366       -4.4771808849        1.8693163568
 H         -7.8177974889       -2.2979300575        2.3843536649
 H         -6.8395522293       -0.2204076011        1.5026038984
 H         -7.0214094736       -0.3183857225       -1.2832479166
 H         -8.5049687224        1.5082564016       -1.9988108474
 H         -7.8579024043        3.8595080352       -1.6075654927
 H         -5.7202247400        4.3715304028       -0.4808112336
 H         -4.2462495196        2.5481809458        0.2615460308
 H         -2.9184913863       -0.9654001877        1.6928889421
 H         -0.4918544256       -0.6704179195        1.5683260680
 H          1.3815462532       -1.3148278674        0.4817736871
  57
        -95.35039760
 O          3.3888020622       -2.3502164891        1.1125145217
 C          3.9599964203       -1.3333166881        0.6359741376
 C          5.4103157332       -1.2533597539        0.6100021611
 C          6.1228198464       -2.3705271533        1.1031432373
 C          7.4941276859       -2.3954883766        1.1030915871
 C          8.2263906463       -1.3155439559        0.6131060091
 C          7.5504595524       -0.2086242497        0.1302938526
 C          6.1701890250       -0.1840036411        0.1347360767
 S          5.4130350051        1.3195126569       -0.4604182478
 O          5.6786678899        2.3849613137        0.4810682836
 O          5.8347771936        1.5704628377       -1.8202231615
 C          3.6700340127        0.9505176852       -0.4428541503
 C          2.8292028211        1.9174321299       -0.9576186044
 C          1.4597884325        1.7481953063       -0.9245149354
 C          0.9177190190        0.5759802680       -0.3611917628
 C         -0.5303820005        0.3773066804       -0.2991041821
 C         -1.3706134381        0.8621552624       -1.3070343063
 C         -2.7360395415        0.7128610188       -1.2291404856
 C         -3.3165162565        0.0636136723       -0.1337076139
 N         -4.6994839456       -0.0595776408       -0.0382580202
 C         -5.2685362171       -1.2023699744        0.5327834415
 C         -4.7009467359       -2.4586299371        0.3089170761
 C         -5.2701860923       -3.5844734638        0.8701889054
 C         -6.4070182020       -3.4778363668        1.6566899149
 C         -6.9734587841       -2.2325103781        1.8821449929
 C         -6.4121293558       -1.0993894100        1.3277481504
 C         -5.5242208845        0.9743440276       -0.4951094831
 C         -6.7376617715        0.6851970625       -1.1225432304
 C         -7.5491641107        1.7112389860       -1.5647792088
 C         -7.1661597669        3.0325881638       -1.3924789975
 C         -5.9616838344        3.3243465526       -0.7707729216
 C         -5.1434114800        2.3069223890       -0.3219668769
 C         -2.4813672295       -0.4472310501        0.8663759404
 C         -1.1174084245       -0.2902669571        0.7814861832
 C          1.7718487575       -0.3897261169        0.1339204309
 C          3.1738143953       -0.2408062487        0.1011827229
 H          5.5367611070       -3.1975988218        1.4752649465
 H          8.0102180697       -3.2634783555        1.4866005723
 H          9.3046849396       -1.3356833751        0.6120576261
 H          8.0740088156        0.6530892015       -0.2535769749
 H          3.2750693402        2.8103786247       -1.3673244194
 H          0.8120441152        2.5277816549       -1.2918240196
 H         -0.9408804931        1.3391158223       -2.1743575712
 H         -3.3687845987        1.0806998593       -2.0238389003
 H         -3.8256885527       -2.5418910678       -0.3188986373
 H         -4.8282612996       -4.5516576883        0.6847177470
 H         -6.8493421875       -4.3606412288        2.0914622810
 H         -7.8535323870       -2.1415445360        2.5004088899
 H         -6.8418586091       -0.1264384962        1.5177743334
 H         -7.0269867306       -0.3451277280       -1.2714053809
 H         -8.4822321635        1.4774064369       -2.0544526088
 H         -7.8028545526        3.8309851224       -1.7405849614
 H         -5.6606923889        4.3507907678       -0.6260969064
 H         -4.2135207251        2.5325753115        0.1797193275
 H         -2.9187554375       -0.9375125782        1.7237739054
 H         -0.4921118212       -0.6560246713        1.5808509744
 H          1.3981330816       -1.3167476960        0.5414368422
  57
        -95.35038133
 O          3.4078940527        1.0717596336        2.3339869653
 C          3.9630854416        0.5750124212        1.3196854917
 C          5.3877324502        0.2865745640        1.3256941821
 C          6.0684371672        0.4180279313        2.5569690447
 C          7.3962478011        0.0916546455        2.6696013085
 C          8.1118966149       -0.3779725240        1.5693259985
 C          7.4725714016       -0.4890171567        0.3468191750
 C          6.1384610230       -0.1537051374        0.2343057524
 S          5.4207268446       -0.1857690807       -1.3980742100
 O          5.6941855256        1.0764983402       -2.0515655632
 O          5.8493724732       -1.3680231512       -2.1084591479
 C          3.6761535572       -0.2747174356       -1.0560858646
 C          2.8416946435       -0.7055574208       -2.0677490480
 C          1.4711767568       -0.6860691964       -1.9002585549
 C          0.9248499320       -0.2043912767       -0.6951847827
 C         -0.5252580902       -0.1390582012       -0.5029690897
 C         -1.3753218070        0.2051664199       -1.5581562205
 C         -2.7386941547        0.2705982574       -1.3816209114
 C         -3.3053533000       -0.0166582632       -0.1350464759
 N         -4.6845255783        0.0392500108        0.0485001059
 C         -5.3129305774       -0.8659845488        0.9109660615
 C         -4.8832999479       -2.1933400636        0.9734173280
 C         -5.5086211343       -3.0834996667        1.8236471026
 C         -6.5661678643       -2.6687703926        2.6186628291
 C         -6.9965432235       -1.3520906624        2.5593357861
 C         -6.3777356859       -0.4524635113        1.7140707485
 C         -5.4468581656        0.9969105906       -0.6278969546
 C         -6.7235701879        0.6792937595       -1.0967050751
 C         -7.4735219969        1.6301851525       -1.7595428363
 C         -6.9663071750        2.9039098418       -1.9670883937
 C         -5.6989647821        3.2235328866       -1.5045004346
 C         -4.9409870621        2.2819607070       -0.8374926243
 C         -2.4608682616       -0.3635473747        0.9254961896
 C         -1.0983564760       -0.4171270871        0.7417509899
 C          1.7719828736        0.2171935176        0.3105928749
 C          3.1740275426        0.1834943933        0.1685379204
 H          5.4946728864        0.7741567613        3.3993363689
 H          7.8900839740        0.1962391978        3.6245975930
 H          9.1536129650       -0.6416029349        1.6623359112
 H          7.9891304482       -0.8300730653       -0.5366973531
 H          3.2928948443       -1.0569988291       -2.9824665631
 H          0.8262266927       -1.0565437284       -2.6809258396
 H         -0.9550777609        0.4360904494       -2.5250476884
 H         -3.3814533897        0.5257158857       -2.2115635366
 H         -4.0705479156       -2.5187538929        0.3402552538
 H         -5.1734744327       -4.1089420394        1.8590388667
 H         -7.0522008935       -3.3681891783        3.2808904983
 H         -7.8142385688       -1.0209593199        3.1812441970
 H         -6.7010816229        0.5778635545        1.6790515659
 H         -7.1106447668       -0.3189760735       -0.9507133579
 H         -8.4563950325        1.3723426421       -2.1234302071
 H         -7.5553104818        3.6435526543       -2.4861891147
 H         -5.3011020249        4.2156046135       -1.6553835438
 H         -3.9614427047        2.5355392902       -0.4590529669
 H         -2.8859306536       -0.5723942486        1.8962488032
 H         -0.4621290972       -0.6896279740        1.5693821635
 H          1.3887352088        0.6104495860        1.2396281650
