  63
  -96.9203224848000       0.285145098760443      !
 N          5.7755100174        2.7750566437        0.0033159310
 C          6.1670044857        1.6965097809       -0.0193051829
 C          6.7117178475        0.3922910915       -0.0191411795
 C          8.1011254322        0.2595941264        0.0055329368
 C          8.6743794292       -0.9951819554        0.0601901123
 C          7.8657584918       -2.1217654430        0.0987979590
 C          6.4888441712       -1.9945277737        0.0773377119
 C          5.8850288765       -0.7426553502        0.0109885063
 C          4.4223421469       -0.6140882022       -0.0200708300
 C          3.6332417362       -1.3489686694        0.8628886247
 C          2.2601982587       -1.2167300248        0.8601151384
 C          1.6421456668       -0.3554505568       -0.0438070794
 N          0.2525143554       -0.2084374371       -0.0433716623
 C         -0.6736415585       -1.2327795995       -0.0423867722
 C         -0.4820047948       -2.6056648909       -0.1027692804
 C         -1.5985260421       -3.4164565803       -0.1113049372
 C         -2.8987079706       -2.8947057874       -0.0779264745
 C         -4.0559972595       -3.8020595523       -0.0833174606
 C         -4.0534849716       -4.9631189101        0.6865604814
 C         -5.1437334664       -5.8129455460        0.6845344329
 C         -6.2540034231       -5.5202249133       -0.0895916747
 C         -6.2672889497       -4.3698007235       -0.8603623204
 C         -5.1794406138       -3.5169378349       -0.8562051043
 C         -3.0845955673       -1.5184237547       -0.0502743607
 C         -1.9770114294       -0.6858645840       -0.0335711901
 C         -1.8196799244        0.7427493522       -0.0165764528
 C         -2.7195435513        1.7959914351        0.0238626922
 C         -2.2379291081        3.0983755297        0.0559085973
 C         -3.1691930924        4.2357885917        0.0967797431
 C         -4.3135035679        4.1884692799        0.8900752120
 C         -5.1876640039        5.2584438150        0.9315514843
 C         -4.9363875819        6.3931870432        0.1785959147
 C         -3.8033927339        6.4508438634       -0.6155481054
 C         -2.9263248836        5.3830724752       -0.6552307493
 C         -0.8547225282        3.3245299000        0.0651523296
 C          0.0588620889        2.2910666094        0.0308884495
 C         -0.4291265639        0.9936094399       -0.0294447859
 C          2.4237305226        0.3628872019       -0.9457537604
 C          3.7972774680        0.2381830013       -0.9279867568
 H          8.7151421301        1.1482860080       -0.0137103169
 H          9.7487776279       -1.0958407154        0.0760844090
 H          8.3121122626       -3.1038714681        0.1436358698
 H          5.8644702560       -2.8760030764        0.0919281051
 H          4.1052314501       -2.0017098385        1.5828203179
 H          1.6594709282       -1.7609924713        1.5731602855
 H          0.5084869584       -3.0320154399       -0.1565251143
 H         -1.4692366578       -4.4870278470       -0.1711483374
 H         -3.1976043631       -5.1884431288        1.3063939122
 H         -5.1288718012       -6.7067150551        1.2914701279
 H         -7.1046922261       -6.1855028978       -0.0922655836
 H         -7.1288934293       -4.1378226847       -1.4696449500
 H         -5.1890357012       -2.6300163372       -1.4731596423
 H         -4.0794376903       -1.1003606134       -0.0241951115
 H         -3.7817673448        1.6042419173        0.0150480868
 H         -4.5057012397        3.3135926747        1.4942456425
 H         -6.0677328160        5.2086890642        1.5564245341
 H         -5.6199618893        7.2286414620        0.2108787296
 H         -3.6036993902        7.3317004311       -1.2084890309
 H         -2.0532048468        5.4281413002       -1.2900348461
 H         -0.4937952181        4.3402408989        0.1283245022
 H          1.1188518938        2.4919613880        0.0670029849
 H          1.9468165590        1.0077630295       -1.6677305044
 H          4.3898610984        0.7894920443       -1.6425063602
  63
  -96.9202277351000       0.257941941177148      !
 N          5.6266442458        2.8053819746        0.0489921996
 C          6.0668392498        1.7456690155        0.0254130090
 C          6.6684675104        0.4666042183        0.0273811316
 C          8.0606156507        0.3932084335        0.0957001170
 C          8.6847612581       -0.8367994549        0.1557383482
 C          7.9243362943       -1.9970836765        0.1562836982
 C          6.5444600250       -1.9286886000        0.0912305667
 C          5.8907382604       -0.7029616301        0.0176719836
 C          4.4257912378       -0.6280433300       -0.0551333242
 C          3.6371107314       -1.3883132065        0.8061296619
 C          2.2617638717       -1.2813419533        0.7831907484
 C          1.6425983845       -0.4202059636       -0.1199121079
 N          0.2535554680       -0.2684439549       -0.1195443273
 C         -0.6848654021       -1.2810162508       -0.1050688485
 C         -0.5124455257       -2.6560829915       -0.1742177284
 C         -1.6394122321       -3.4525081974       -0.1614301450
 C         -2.9318643048       -2.9144237884       -0.0977106035
 C         -4.1018648782       -3.8050764656       -0.0731663695
 C         -5.2443049136       -3.4997743095       -0.8098155465
 C         -6.3462416238       -4.3338676742       -0.7804510214
 C         -6.3282436932       -5.4858297844       -0.0120667908
 C         -5.1987371728       -5.7993237220        0.7251254344
 C         -4.0946238145       -4.9681661233        0.6937469570
 C         -3.0991097388       -1.5358260369       -0.0637750483
 C         -1.9809375453       -0.7176477640       -0.0688068653
 C         -1.8057867886        0.7088555145       -0.0479715637
 C         -2.6911470018        1.7734428315        0.0151336264
 C         -2.1916988345        3.0690131725        0.0455833978
 C         -3.1053443989        4.2196196352        0.1083572945
 C         -4.2304915084        4.1899166621        0.9291165531
 C         -5.0857599066        5.2740610737        0.9920612131
 C         -4.8346006623        6.4047587514        0.2330537862
 C         -3.7209330224        6.4443952797       -0.5890533728
 C         -2.8623635730        5.3627622987       -0.6498003899
 C         -0.8058593248        3.2774609676        0.0328009708
 C          0.0933322144        2.2326145593       -0.0232140015
 C         -0.4128277263        0.9421984746       -0.0845119541
 C          2.4241073919        0.3091896382       -1.0133277654
 C          3.7990426533        0.2104996078       -0.9746678765
 H          8.6361696339        1.3074346786        0.1060434027
 H          9.7613173078       -0.8918147325        0.2062365669
 H          8.4109765530       -2.9595478756        0.2058061581
 H          5.9580687327       -2.8358491153        0.0774177550
 H          4.1101438503       -2.0361080741        1.5297567157
 H          1.6605880811       -1.8411339816        1.4837278448
 H          0.4713137127       -3.0947453632       -0.2491375023
 H         -1.5251283171       -4.5244337488       -0.2273509663
 H         -5.2589134022       -2.6114926245       -1.4244912682
 H         -7.2232101076       -4.0852808654       -1.3605907113
 H         -7.1901129005       -6.1361006861        0.0120307277
 H         -5.1796855247       -6.6946504736        1.3296856307
 H         -3.2237250670       -5.2093342164        1.2859740738
 H         -4.0874988757       -1.1048091277       -0.0141641201
 H         -3.7558812619        1.5960349544        0.0249342311
 H         -4.4215989576        3.3177302905        1.5375317876
 H         -5.9503727760        5.2388830525        1.6390577673
 H         -5.5035221726        7.2511151965        0.2820363609
 H         -3.5216535438        7.3220409116       -1.1868500756
 H         -2.0037386916        5.3936558739       -1.3049969915
 H         -0.4308721480        4.2880169606        0.0963123235
 H          1.1561488874        2.4199606714       -0.0025644911
 H          1.9459861136        0.9467323162       -1.7409402727
 H          4.3925122365        0.7751954135       -1.6779690833
  63
  -96.9201408572000       0.235285761026665      !
 N          5.5398316860        2.8130861938        0.1065225992
 C          6.0074037409        1.7652601338        0.0794837267
 C          6.6411329492        0.5033235867        0.0165332908
 C          8.0333110574        0.4669445577       -0.0752985799
 C          8.6850566459       -0.7441637506       -0.1968351272
 C          7.9523568848       -1.9215069008       -0.2354847923
 C          6.5722406862       -1.8896436566       -0.1476266260
 C          5.8916772435       -0.6843058677       -0.0120022380
 C          4.4265870005       -0.6426646116        0.0820552980
 C          3.7970455486        0.1382502016        1.0491269659
 C          2.4215672146        0.2220351371        1.0989018272
 C          1.6427023921       -0.4631954350        0.1688710976
 N          0.2541560392       -0.3068866050        0.1702270454
 C         -0.6907449471       -1.3098339307        0.0869486026
 C         -0.5294416370       -2.6879930675        0.0916704145
 C         -1.6614616568       -3.4737633907        0.0157026823
 C         -2.9483864083       -2.9226287593       -0.0479864344
 C         -4.1244871002       -3.8004753841       -0.1425643913
 C         -4.1117076991       -4.9205506488       -0.9708380627
 C         -5.2223178058       -5.7378116931       -1.0690690054
 C         -6.3638576159       -5.4533181608       -0.3385656330
 C         -6.3873733161       -4.3443097799        0.4904887484
 C         -5.2789368251       -3.5240286770        0.5867149190
 C         -3.1052896837       -1.5427454506       -0.0171683980
 C         -1.9817962098       -0.7348361098        0.0506661279
 C         -1.7964120735        0.6895843205        0.1033032406
 C         -2.6725812913        1.7631441925        0.0709495679
 C         -2.1625559348        3.0548674753        0.0946736536
 C         -3.0668421513        4.2135517635        0.0491819689
 C         -2.7623586765        5.3227036788       -0.7369028097
 C         -3.6145594508        6.4100551841       -0.7819641442
 C         -4.7840829795        6.4100690947       -0.0404261327
 C         -5.0968481831        5.3134331740        0.7452034394
 C         -4.2474964462        4.2236122012        0.7882713600
 C         -0.7758419760        3.2508269120        0.1447417384
 C          0.1138309354        2.1972213832        0.1854317766
 C         -0.4028590260        0.9096287218        0.1783165164
 C          2.2647060685       -1.2754450346       -0.7765309117
 C          3.6409170447       -1.3689574828       -0.8104780466
 H          8.5868147794        1.3945255892       -0.0561839662
 H          9.7617509835       -0.7709696741       -0.2656048045
 H          8.4609826420       -2.8688545612       -0.3334671672
 H          6.0074440426       -2.8103416941       -0.1646778986
 H          4.3891792510        0.6709953352        1.7780882878
 H          1.9412109471        0.8166468242        1.8605860332
 H          0.4495990023       -3.1374783576        0.1651270439
 H         -1.5562730873       -4.5485821311        0.0297676836
 H         -3.2309232282       -5.1381201450       -1.5576361547
 H         -5.1990250138       -6.5992010791       -1.7208585084
 H         -7.2310137123       -6.0923781462       -0.4153870120
 H         -7.2735877402       -4.1190694434        1.0660918242
 H         -5.2980204237       -2.6700034229        1.2481935657
 H         -4.0893476155       -1.1020054623       -0.0672809040
 H         -3.7362682591        1.5954762006       -0.0047891814
 H         -1.8604282338        5.3218071895       -1.3317462063
 H         -3.3666249786        7.2607767816       -1.4002998731
 H         -5.4485009010        7.2607091585       -0.0747633334
 H         -6.0061920850        5.3089908453        1.3288127433
 H         -4.4885753968        3.3777182917        1.4159665744
 H         -0.3924697268        4.2598897542        0.1682492176
 H          1.1777441817        2.3773961673        0.2067325414
 H          1.6651872049       -1.8040165362       -1.5022685437
 H          4.1165039401       -1.9760310770       -1.5670762414
  63
  -96.9200843420000       0.221627199035744      !
 N          5.9874437786        2.7137582878        0.0152605664
 C          6.3073833564        1.6131979410       -0.0494608973
 C          6.7627390081        0.2759854666       -0.0940008964
 C          8.1386998036        0.0521852063       -0.1702127556
 C          8.6306425041       -1.2377401417       -0.1689249464
 C          7.7544010780       -2.3096771671       -0.0816437708
 C          6.3911585996       -2.0921623378       -0.0030643489
 C          5.8673250053       -0.8027017082       -0.0153347684
 C          4.4151602096       -0.5905057388        0.0411776470
 C          3.6360452948       -1.3016112749        0.9521594890
 C          2.2681823523       -1.1302988882        0.9959531953
 C          1.6433836004       -0.2543662623        0.1106500238
 N          0.2528056776       -0.1160610246        0.1220763896
 C         -0.6536724894       -1.1583577710        0.0890518617
 C         -0.4333391856       -2.5267165035        0.0248475791
 C         -1.5325352837       -3.3586614363       -0.0312170107
 C         -2.8429731876       -2.8624440824       -0.0406504322
 C         -3.9788309312       -3.7939903615       -0.1076515392
 C         -5.0724330084       -3.5228016140       -0.9268592111
 C         -6.1370426141       -4.4018310694       -0.9952180225
 C         -6.1299007873       -5.5649280895       -0.2436363769
 C         -5.0497787597       -5.8433832047        0.5769800787
 C         -3.9826293273       -4.9672581077        0.6433667616
 C         -3.0567743848       -1.4904787379       -0.0054285893
 C         -1.9667385802       -0.6369213376        0.0570807468
 C         -1.8370917133        0.7943638874        0.0769543580
 C         -2.7582352603        1.8295615118        0.0728835401
 C         -2.3037624256        3.1417494429        0.1020702876
 C         -3.2603955141        4.2585022983        0.0771175832
 C         -3.0133299199        5.3894542264       -0.6978302431
 C         -3.9196033609        6.4327396234       -0.7316828430
 C         -5.0862659885        6.3670564605        0.0114177753
 C         -5.3411023931        5.2493827988        0.7882702305
 C         -4.4379883909        4.2033320349        0.8195654951
 C         -0.9265740440        3.3955545692        0.1603460137
 C          0.0078268143        2.3799864203        0.1729171454
 C         -0.4517068347        1.0723159802        0.1084828072
 C          2.4168389701        0.4627224035       -0.7991032668
 C          3.7863824077        0.2992920677       -0.8273425185
 H          8.8071258232        0.8989710548       -0.2261536956
 H          9.6942323149       -1.4085238565       -0.2339446567
 H          8.1364812415       -3.3195187442       -0.0802622072
 H          5.7124790307       -2.9312030994        0.0465327782
 H          4.1125230283       -1.9745569972        1.6502278841
 H          1.6758562243       -1.6633738626        1.7243065825
 H          0.5661933773       -2.9340242638        0.0009338287
 H         -1.3799836000       -4.4257363130       -0.0977680785
 H         -5.0754637386       -2.6262246397       -1.5297541806
 H         -6.9741598408       -4.1817925951       -1.6419818117
 H         -6.9609630775       -6.2523942585       -0.2992102164
 H         -5.0396979669       -6.7475711378        1.1683275135
 H         -3.1505746715       -5.1822038509        1.2983259534
 H         -4.0598884807       -1.0918117051       -0.0137461275
 H         -3.8154528847        1.6164220339        0.0285608682
 H         -2.1133792899        5.4397943527       -1.2935752828
 H         -3.7152874580        7.3016264874       -1.3405501774
 H         -5.7922552531        7.1839738910       -0.0128849460
 H         -6.2472172754        5.1940730728        1.3742486232
 H         -4.6351043826        3.3414444346        1.4405596896
 H         -0.5883988288        4.4191778515        0.2226199921
 H          1.0619723604        2.6020580026        0.2428723126
 H          1.9359118105        1.1301076534       -1.4975853123
 H          4.3711356027        0.8456263026       -1.5520019721
