134
 energy: -203.819952894596 gnorm: 0.000057026673 xtb: 6.7.1 (edcfbbe)
C          -14.30598446151814        2.82978664037597       -2.89775132974707
C          -14.81282790203153        1.54226592826286       -2.82315588767079
C          -14.26315756547643        0.62235907496865       -1.95102849339775
C          -13.19569279129670        0.98342175731812       -1.12866206959972
N          -12.63680181715992        0.05694515673218       -0.23979406475368
C          -13.45757379509870       -0.85668011462078        0.43185391544302
C          -14.72463547300796       -0.47800385934209        0.87621618031452
C          -15.53169147621719       -1.38516083436665        1.53546260182905
C          -15.08963060243086       -2.67693866701450        1.77210264958332
C          -13.83030703935164       -3.05731661738968        1.33688459427668
C          -13.02010773117337       -2.16030877747119        0.66783876730826
C          -11.25422793047275        0.04625180181995       -0.02227430378310
C          -10.73640636405847       -0.19819944366569        1.25013932612979
C           -9.37237712720906       -0.21293597969822        1.45877819575501
C           -8.48640710419549        0.02912762116618        0.41203613263189
C           -7.02663868663670        0.02345804893128        0.64166324886136
C           -6.37091343273920       -1.17937759095160        0.94471227314818
C           -7.06385234025025       -2.41736347630963        1.00813664307847
C           -6.41412348283653       -3.57752477948881        1.29900587248934
C           -5.02463750706774       -3.57629744646373        1.53765389734773
C           -4.31956330033621       -2.41444156877500        1.47102489680622
C           -4.95935342570394       -1.18228356096197        1.17254243311467
C           -4.23644649430300        0.01409879421797        1.08345081267243
C           -2.77636743459579        0.01327900351538        1.33613008204997
C           -2.31139979145974        0.11691618281330        2.64213458070778
C           -0.95906707297743        0.12925960211207        2.92061739183755
C           -0.01848483988179        0.03725611526642        1.89321316259191
C            1.38490325232627        0.05050112316392        2.14341472759445
C            2.28051093617849       -0.03539348347793        1.13320118443629
C            1.85527948810592       -0.14503312136513       -0.22446509004285
C            2.77021640513223       -0.23012942650506       -1.28562914698656
C            4.23075329751923       -0.19072887450741       -1.03716023509411
C            4.89272369875829        1.04302168364934       -0.98716490092641
C            4.19210288094044        2.26922002072434       -1.13597156920506
C            4.84190029323848        3.46335079018110       -1.07692518838604
C            6.23443324425957        3.50465881305337       -0.85961964745551
C            6.94203251539069        2.35149050274010       -0.71159144978902
C            6.30605566713833        1.08335695095541       -0.77567654342030
C            7.02298993814725       -0.11192160669587       -0.62275121739188
C            8.48677950391285       -0.06739394286427       -0.40896832189958
C            9.34859085368339        0.21869851253364       -1.46392367288794
C           10.71373050533060        0.27278825890507       -1.26770811455720
C           11.25504095934191        0.03927594009444       -0.00333307481130
N           12.63879653770738        0.09949481726950        0.20178120178319
C           13.51160748427706       -0.39320669161317       -0.77576875380133
C           14.71629142857677        0.25721299716403       -1.04424006182245
C           15.57610715749064       -0.23731987733375       -2.00599541818579
C           15.24871033108119       -1.37812495779658       -2.72126099157781
C           14.05078296527116       -2.02485787669708       -2.46305195632595
C           13.18848500629000       -1.54281209189826       -1.49717107066808
C           13.14623018636256        0.66100755403978        1.37947574121941
C           14.28263822376502        0.12623973093881        1.98700860040867
C           14.78499684660093        0.68984599257289        3.14407161113087
C           14.16165354874460        1.78512605856951        3.72029676782951
C           13.02838500390778        2.31593893333560        3.12538664633124
C           12.52372254687375        1.76474362200115        1.96334861840365
C           10.39356100108425       -0.25259719855455        1.05444522638995
C            9.02927675336128       -0.30357698417744        0.85096972545106
C            6.35919621328532       -1.34566455291641       -0.67134635054794
C            7.05546414527244       -2.57643503869917       -0.53975251686108
C            6.39862115266229       -3.76754387214623       -0.58632609234840
C            5.00104292324314       -3.80426697777401       -0.77055682475971
C            4.29765188496320       -2.64835872717267       -0.91459839780578
C            4.94505108399904       -1.38499901313817       -0.87841906792488
C            2.30562657025759       -0.34347300992188       -2.59097957535144
C            0.95327071251262       -0.36975116948354       -2.86843823854592
C            0.01253373485160       -0.27995432729028       -1.84099058000429
C           -1.39082759450842       -0.29771337208993       -2.09084794124327
C           -2.28649097583640       -0.20536418880631       -1.08126264291506
C           -1.86160615087134       -0.08684898437546        0.27591249630611
C           -0.47202644841939       -0.07299181768804        0.55530159892322
C            0.46573145070210       -0.16731357669154       -0.50320423038383
C           -4.88875725769794        1.21532513969729        0.77626467278223
C           -4.17905811527066        2.44182879183213        0.68366732051884
C           -4.82083694479746        3.60734647274558        0.39884028246880
C           -6.21653799527413        3.61861843061494        0.20052946882981
C           -6.93250094852219        2.46368778401286        0.28024033037379
C           -6.30138540175472        1.22175010119244        0.55618856223129
C           -9.00634966717986        0.27884034210990       -0.85544678005024
C          -10.36873511828319        0.28106183449484       -1.07467701998155
C          -12.69196960933263        2.28218070264231       -1.20540982621070
C          -13.24253798843346        3.19243461436125       -2.08687970967341
H          -14.73621020295720        3.54499437914112       -3.58269805483544
H          -15.63786986365265        1.24819927866416       -3.45573970800153
H          -14.65504135511105       -0.38328209982008       -1.90181870815556
H          -15.06891296659099        0.53132241649892        0.70273699589396
H          -16.51020332753927       -1.07725102540074        1.87479340691912
H          -15.72166667658411       -3.38177981267589        2.29124447041254
H          -13.47867768974947       -4.06400947911038        1.51117473839911
H          -12.04333973031772       -2.46392949839803        0.31991955069248
H          -11.41245838461254       -0.37371607581528        2.07431907631961
H           -8.98334026860560       -0.39717068713777        2.45007953796139
H           -8.12625624305509       -2.42300081807816        0.81456967948825
H           -6.95727150936642       -4.51059359189916        1.34324994629686
H           -4.52530122160821       -4.50694984923626        1.76578175924210
H           -3.25239639404535       -2.41023978270630        1.64008408082831
H           -3.02910604643241        0.19097376081346        3.44737671137652
H           -0.61866552375806        0.21219554328926        3.94305843494112
H            1.71775580433718        0.13276628116229        3.16870465964498
H            3.34207648553104       -0.02312704530120        1.33439895027070
H            3.12408074054732        2.23427835473853       -1.29518079352342
H            4.29621194113059        4.38884509196201       -1.19139762084027
H            6.73343269618670        4.46179153954848       -0.80928395954703
H            8.00783794058602        2.38304761794887       -0.53929267613140
H            8.93954676978543        0.40568071843849       -2.44663029354202
H           11.37150868609200        0.50181136707206       -2.09356666011191
H           14.97037596231683        1.15237039062724       -0.49520528473169
H           16.50487087230126        0.27792692992376       -2.20440390711405
H           15.92165980307954       -1.76001606955422       -3.47430012617040
H           13.78888915786994       -2.91791153352500       -3.01195894155419
H           12.25986978609532       -2.05540168775781       -1.29198674070672
H           14.76592148901086       -0.73343073748998        1.54569081161072
H           15.66567882282027        0.26475749428087        3.60360789464166
H           14.55566327884157        2.22100961094510        4.62614993053417
H           12.53743894006166        3.17255965850252        3.56439716712913
H           11.64516194322246        2.18756471778098        1.49792343215701
H           10.80236043337378       -0.44050290804977        2.03666777426899
H            8.37132428294100       -0.53109493770969        1.67758106080794
H            8.12634914210847       -2.54784234928959       -0.40182532137190
H            6.94262908310299       -4.69554584172688       -0.48416262092693
H            4.49582993467452       -4.75895841278599       -0.79946580931018
H            3.22720410559017       -2.67195486721660       -1.05973933368466
H            3.02346336247083       -0.40864627590623       -3.39683060724829
H            0.61298143445060       -0.45743183128460       -3.89052127977425
H           -1.72372192639833       -0.38754060829223       -3.11548943158737
H           -3.34790447483286       -0.22047473357145       -1.28290117758397
H           -3.11119757140793        2.43069673876877        0.84727980072878
H           -4.26820923974583        4.53328353338095        0.33054819140555
H           -6.71302426507931        4.55486977890488       -0.01065989378021
H           -8.00304313642407        2.47654693785706        0.13864605800515
H           -8.33045192470672        0.45648272490074       -1.67974805579392
H          -10.75753446448871        0.46394214224273       -2.06590110332775
H          -11.86970117114266        2.57148122070647       -0.56709078963984
H          -12.84379844701854        4.19553956676105       -2.13395329394241
