134
 energy: -203.756542748598 gnorm: 0.000058790231 xtb: 6.7.1 (edcfbbe)
C          -14.27971943136843        3.78312623067245       -1.73501239936870
C          -14.82617991874245        2.56373390445492       -2.10306566135076
C          -14.29863401682974        1.38428437066672       -1.61391724996996
C          -13.21407386420190        1.41104277496303       -0.73657694706035
N          -12.68281091694934        0.21809672221855       -0.23013989075519
C          -13.54114006639776       -0.84110468871889        0.09382586606726
C          -14.77957218101671       -0.59099461421776        0.68539282321486
C          -15.62597960378649       -1.63827878231733        0.99471055179156
C          -15.25196666496501       -2.94569251167911        0.72693251575814
C          -14.02120171877368       -3.19939911148335        0.14247231714525
C          -13.17024316494306       -2.15871265769536       -0.17629537813561
C          -11.30761881126320        0.08090944981464       -0.05441400771491
C          -10.79488528142806       -0.65813419637588        1.01655810297862
C           -9.43610650928857       -0.80367460553849        1.18018584216278
C           -8.52977096175074       -0.20557844640221        0.29655924589955
C           -7.08815711949349       -0.35856044267974        0.47145218066867
C           -6.51045961702636       -1.65663441668908        0.50901618930639
C           -7.28561685338323       -2.81179427200551        0.29482811861641
C           -6.72175457245522       -4.06964555195016        0.27198968459125
C           -5.34657156348489       -4.21381642732432        0.40738289238710
C           -4.55264265171078       -3.09750329085506        0.57514944270895
C           -5.10045459322474       -1.80690186561768        0.66664557694468
C           -4.26504241896035       -0.65560365832775        0.78898748908008
C           -2.84123711665762       -0.81926730331638        0.98856876092756
C           -2.39043925518918       -1.58855905558705        2.07554172219688
C           -1.06180609051852       -1.68465145000510        2.39024126171019
C           -0.07978843250647       -1.05611159018220        1.59648207958760
C            1.29427964968957       -1.12061430177021        1.90956713652189
C            2.23213094949662       -0.53536606772349        1.10927451952421
C            1.86213582599730        0.14235041777486       -0.07823444764860
C            2.82083732943145        0.73616286123076       -0.93393248884422
C            4.26562311930672        0.58865138821757       -0.70239831006406
C            5.04366851522227        1.72122262773788       -0.39838502362919
C            4.45205765360929        2.99235639740064       -0.18962516325668
C            5.21105537241578        4.09411591933393        0.07552497538552
C            6.61161569575339        3.98747048007949        0.14303218958447
C            7.21612865164913        2.77572735424997       -0.01661580527586
C            6.46115494123255        1.59971051467870       -0.25961644737051
C            7.07066607763736        0.33956042632620       -0.38408676037129
C            8.53387593996256        0.21051297230350       -0.24706387579070
C            9.31510454198095       -0.17784202199360       -1.33430363488924
C           10.68470828682231       -0.29293433148897       -1.21955413259079
C           11.31628610088252       -0.03692100641524       -0.00139872810355
N           12.70382860770609       -0.16396101815011        0.12051656141120
C           13.42258726604869        0.73235419201054        0.92008198229615
C           13.06165585427044        2.07908405867769        0.97363797419305
C           13.77255383021317        2.95971193945786        1.76593602777206
C           14.85636782508518        2.51858783299595        2.50827303272808
C           15.22137791367693        1.18272215302646        2.45626241856407
C           14.51105785563131        0.29256738695843        1.67414374912450
C           13.37291337323028       -1.18942043934007       -0.55875229154374
C           14.63107498315188       -0.96526072272803       -1.11838152167347
C           15.28924828821505       -1.98285272066520       -1.78182886753300
C           14.70505323296658       -3.23334073959461       -1.90618779532382
C           13.45298748493397       -3.45979591888196       -1.35720321626562
C           12.79063835259397       -2.45110376434074       -0.68457045223202
C           10.53733068116682        0.34561249974356        1.09166239484752
C            9.16945893656816        0.47373938979965        0.96488098594338
C            6.29128035627190       -0.79900986865067       -0.65380245872801
C            6.86673348140807       -2.09303404769042       -0.73494300660632
C            6.11383887838099       -3.18736320825664       -1.04176511582329
C            4.73762839927392       -3.04929077191330       -1.29617183185233
C            4.14100840878092       -1.82729691674813       -1.19627947045247
C            4.87993483476333       -0.67135643646250       -0.83910135204016
C            2.38999522575727        1.46515571869262       -2.04283459844770
C            1.05595476787680        1.56621307859330       -2.36187864916399
C            0.07685927535214        0.95661903561831       -1.55806682271356
C           -1.29889538625000        1.00242526954968       -1.87990355694004
C           -2.23470300384612        0.43006537002437       -1.06928479538039
C           -1.87126503353443       -0.21455285820501        0.13604412166061
C           -0.49269730520025       -0.33599788325397        0.44691964709657
C            0.48290717820504        0.25734121163932       -0.39416693191256
C           -4.85432327982571        0.64634599619521        0.77384048578918
C           -4.09291281840809        1.79517021848683        1.04560539498436
C           -4.66127096395575        3.05067921892219        1.08730739005015
C           -6.03070068435675        3.19632643838892        0.89871685257685
C           -6.81572033674722        2.08398775812376        0.68637055848708
C           -6.26298170701740        0.79154970189187        0.60722166334481
C           -9.05185407716172        0.54314745548367       -0.76501268359424
C          -10.40956311551589        0.67758824250216       -0.94502828873933
C          -12.66952754059900        2.64127919941081       -0.36650606681228
C          -13.19923108041803        3.81472718360255       -0.86764175101377
H          -14.69291799238716        4.70251944982733       -2.12160530417482
H          -15.66447335244171        2.52959109608224       -2.78345867887980
H          -14.71878400074876        0.43440177350125       -1.91069209269484
H          -15.06853358952641        0.42680951420831        0.90317360460301
H          -16.58125605284343       -1.43233367936451        1.45500909096717
H          -15.91536893918771       -3.76142117308395        0.97171716240100
H          -13.72466781463519       -4.21495889604128       -0.07560808838170
H          -12.21665517720833       -2.35726396789778       -0.64350336193696
H          -11.47563894397484       -1.10506165994174        1.72639890542462
H           -9.05729154368922       -1.35453150460454        2.02894300810861
H           -8.34620494588244       -2.70743222079780        0.12578996456060
H           -7.34669779170158       -4.93780808666385        0.11996987617295
H           -4.89374363998583       -5.19334274144030        0.35743142463625
H           -3.48092390484674       -3.21773123755344        0.62018496016564
H           -3.12813444615255       -2.04796626661271        2.71903513044005
H           -0.74937900546775       -2.22984363359732        3.26972834007918
H            1.59540065418702       -1.64825586205786        2.80404294991528
H            3.27882101037381       -0.58900004329502        1.37052210530033
H            3.37638606326378        3.07493850934452       -0.24035745833241
H            4.74164998756102        5.05469418865116        0.23209149861317
H            7.20380235149190        4.87191876103001        0.32948728449566
H            8.29143694591662        2.69613593868749        0.04050809039333
H            8.83898690419199       -0.37120703142169       -2.28494724680204
H           11.27767733743131       -0.57911358008577       -2.07604501077872
H           12.22488193752699        2.42823266949490        0.38622702663793
H           13.48336758590717        4.00029259044623        1.79623042511792
H           15.41240240429522        3.21048970415890        3.12287621959111
H           16.06118345447196        0.82839995859772        3.03623668099106
H           14.79200382370933       -0.75018714735326        1.64343158507973
H           15.08493089707390        0.01124387277532       -1.03107864417108
H           16.26240715794545       -1.79509245125290       -2.21178497636161
H           15.22155638851608       -4.02534912442615       -2.42734702971925
H           12.99134524422731       -4.43266556616465       -1.44502062076498
H           11.81948547006355       -2.63364387609419       -0.24790347947228
H           11.01302165083062        0.53605826314656        2.04276810806154
H            8.57723721925380        0.76136009839485        1.82185416575329
H            7.92413955812337       -2.20002359289681       -0.54367518093562
H            6.56995792332331       -4.16536477885544       -1.09749687016616
H            4.15535331690741       -3.91852975558408       -1.56615498829909
H            3.08290882564592       -1.72683959960530       -1.38669364347000
H            3.13293317810497        1.92491886518928       -2.68036444243292
H            0.74724820609275        2.10480307331658       -3.24647645401176
H           -1.59922912167565        1.50072293193954       -2.79108317842298
H           -3.27906914560686        0.46697767673628       -1.34216896222526
H           -3.03538630084118        1.69110492413365        1.23452449432919
H           -4.04327544669819        3.91423899237975        1.28557027595348
H           -6.48422143300054        4.17594660059453        0.94308800260822
H           -7.88485662522207        2.20257970168740        0.59983553247419
H           -8.37338282474517        0.98745256023246       -1.47872353148138
H          -10.79034501403522        1.23410134823306       -1.78895915445783
H          -11.83646378030414        2.66879299077782        0.32070147014397
H          -12.77111416543135        4.76102816386519       -0.57076232356379
