  134
       -203.67729672
 C        -14.2534650222        3.7322072511       -1.7279023374
 C        -14.7734761597        2.5159568300       -2.1402403575
 C        -14.2447672277        1.3317188518       -1.6651606323
 C        -13.1846929962        1.3498919090       -0.7586893962
 N        -12.6478734996        0.1522042418       -0.2727649383
 C        -13.4950384577       -0.9299080158       -0.0055176623
 C        -14.7562272544       -0.7180238325        0.5510580634
 C        -15.5912449414       -1.7880126223        0.8074316304
 C        -15.1834810841       -3.0808257674        0.5211933709
 C        -13.9306090249       -3.2968011687       -0.0293951648
 C        -13.0909316697       -2.2330427864       -0.2957910866
 C        -11.2751411032        0.0320175172       -0.0654370203
 C        -10.7781049744       -0.7401379849        0.9880113334
 C         -9.4210677593       -0.8722784022        1.1793477292
 C         -8.5058698586       -0.2258675648        0.3434027725
 C         -7.0640859267       -0.3664236657        0.5407448307
 C         -6.4651574341       -1.6509758696        0.5076513235
 C         -7.2203116252       -2.8072856780        0.2270006000
 C         -6.6332572212       -4.0476867771        0.1339973555
 C         -5.2536509428       -4.1740900612        0.2672048300
 C         -4.4815136935       -3.0587095574        0.5037558809
 C         -5.0537964743       -1.7842682452        0.6669622156
 C         -4.2431307023       -0.6288651072        0.8637299286
 C         -2.8160413170       -0.7761391154        1.0488230282
 C         -2.3451853430       -1.6102900372        2.0771888030
 C         -1.0126740902       -1.7101091478        2.3716411124
 C         -0.0467318493       -1.0200766196        1.6083865880
 C          1.3299904768       -1.0912593287        1.8995860721
 C          2.2533239220       -0.4506017904        1.1228912363
 C          1.8626029413        0.2919428229       -0.0154393886
 C          2.8089546886        0.9416442409       -0.8496728021
 C          4.2489623629        0.7583474849       -0.6719716262
 C          5.0726173131        1.8731403079       -0.4090663054
 C          4.5288343971        3.1619816344       -0.1950931085
 C          5.3312307159        4.2463803910        0.0203569145
 C          6.7269444712        4.0993824371        0.0300135513
 C          7.2872504386        2.8637671865       -0.1227022870
 C          6.4877717153        1.7088763341       -0.3067664606
 C          7.0542779266        0.4250527410       -0.4107659588
 C          8.5095042934        0.2495518859       -0.2836612295
 C          9.2594612078       -0.2617849263       -1.3423587022
 C         10.6231302968       -0.4285720585       -1.2314021496
 C         11.2813769870       -0.1013880061       -0.0448015203
 N         12.6613876291       -0.2832999177        0.0742342701
 C         13.4301871619        0.6383759242        0.7917247089
 C         13.1212582648        1.9983367551        0.7533238615
 C         13.8808509699        2.9052505103        1.4659661046
 C         14.9616912420        2.4770375495        2.2193148809
 C         15.2753404906        1.1281584483        2.2580428515
 C         14.5167498355        0.2122554231        1.5557105975
 C         13.2705461749       -1.3887413551       -0.5294583000
 C         14.5322516665       -1.2731242069       -1.1127403059
 C         15.1274777371       -2.3695275128       -1.7055909841
 C         14.4765099962       -3.5921442212       -1.7348217398
 C         13.2217153889       -3.7117428759       -1.1599848827
 C         12.6215909375       -2.6233768077       -0.5577793071
 C         10.5351466977        0.4072137379        1.0193491783
 C          9.1735265074        0.5852705208        0.8954696222
 C          6.2331376193       -0.6937561936       -0.6475451944
 C          6.7639644869       -2.0058264628       -0.7128557222
 C          5.9741773525       -3.0784010423       -1.0107675051
 C          4.6071849160       -2.8948898702       -1.2717863731
 C          4.0506574450       -1.6521867650       -1.1717372397
 C          4.8255143812       -0.5231966851       -0.8141763561
 C          2.3531564214        1.7594078441       -1.8876931223
 C          1.0151479481        1.8834683979       -2.1698635752
 C          0.0498521683        1.2103505780       -1.3966364568
 C         -1.3284690769        1.2739120608       -1.6915791828
 C         -2.2499047773        0.6326539597       -0.9138448397
 C         -1.8639492290       -0.0971029206        0.2325128871
 C         -0.4807592983       -0.2275549580        0.5163044565
 C          0.4785594854        0.4279379060       -0.2958922788
 C         -4.8566845369        0.6571431320        0.9286790479
 C         -4.1184406202        1.8027049358        1.2754953405
 C         -4.7132233677        3.0378463464        1.3912771915
 C         -6.0865179194        3.1689293231        1.2003894039
 C         -6.8468489512        2.0606608121        0.9110576545
 C         -6.2660272372        0.7853095585        0.7596290305
 C         -9.0114854366        0.5589410343       -0.6975687651
 C        -10.3664899236        0.6790819807       -0.9074297586
 C        -12.6685180904        2.5771693540       -0.3424072155
 C        -13.1994622544        3.7557404266       -0.8289913820
 H        -14.6671480880        4.6552367194       -2.1039967701
 H        -15.5919587851        2.4880870674       -2.8441295914
 H        -14.6440250665        0.3839927804       -1.9958386427
 H        -15.0711073657        0.2888178028        0.7835586795
 H        -16.5638546420       -1.6111178386        1.2419510398
 H        -15.8376459431       -3.9143792442        0.7255394513
 H        -13.6073256685       -4.3005224939       -0.2623824498
 H        -12.1199067744       -2.4010907557       -0.7382175312
 H        -11.4693911081       -1.2266229909        1.6604425219
 H         -9.0535900251       -1.4545978372        2.0116716434
 H         -8.2821811421       -2.7110341852        0.0627640961
 H         -7.2394878971       -4.9180083516       -0.0703693960
 H         -4.7852224325       -5.1413339546        0.1609177007
 H         -3.4085568779       -3.1610481361        0.5476490463
 H         -3.0706537393       -2.1207692706        2.6949339849
 H         -0.6832347572       -2.3076460864        3.2095543944
 H          1.6476626042       -1.6698571665        2.7556117426
 H          3.3027171001       -0.5117322450        1.3676837083
 H          3.4558907827        3.2786764138       -0.1994713821
 H          4.8960932497        5.2220674472        0.1795561962
 H          7.3538934831        4.9679101284        0.1697406479
 H          8.3607703413        2.7527743530       -0.1079739534
 H          8.7633034551       -0.5076072963       -2.2699710679
 H         11.1925347852       -0.8098371403       -2.0662360082
 H         12.2865272016        2.3359879050        0.1567107543
 H         13.6319415586        3.9553705813        1.4248329986
 H         15.5555970477        3.1892553727        2.7713220234
 H         16.1136068432        0.7843679163        2.8458984661
 H         14.7575995761       -0.8400401919        1.5954453918
 H         15.0368830228       -0.3181099761       -1.1009224538
 H         16.1034292741       -2.2655456986       -2.1560989102
 H         14.9435381714       -4.4454731668       -2.2020812695
 H         12.7088613060       -4.6621498702       -1.1724829130
 H         11.6480600538       -2.7212774694       -0.1001130104
 H         11.0321571081        0.6535188484        1.9461198063
 H          8.6051478983        0.9663100185        1.7314290201
 H          7.8159569590       -2.1484267116       -0.5184015986
 H          6.3978632187       -4.0710306513       -1.0562552226
 H          3.9968012756       -3.7432611282       -1.5443365534
 H          2.9981252311       -1.5188204172       -1.3665582982
 H          3.0829352004        2.2587320525       -2.5097831691
 H          0.6883008855        2.4844626539       -3.0061665043
 H         -1.6463047268        1.8405806272       -2.5553944974
 H         -3.2975019988        0.6829882228       -1.1684116161
 H         -3.0606973287        1.7069112056        1.4627510026
 H         -4.1170078008        3.9007727634        1.6484052007
 H         -6.5576003442        4.1354344164        1.3034407168
 H         -7.9171729330        2.1610544707        0.8186724781
 H         -8.3215841410        1.0466441411       -1.3706496676
 H        -10.7361460142        1.2651010381       -1.7359840370
 H        -11.8552153043        2.5970408958        0.3682186701
 H        -12.7925836820        4.6992094436       -0.4964443113
