48
 energy: -80.892075060254 gnorm: 0.000040585551 xtb: 6.7.1 (edcfbbe)
N            1.86963074061930       -6.58205049299359       -0.09113023116853
C            1.42018923749436       -5.52507250579529       -0.06869269253601
C            0.86597336723581       -4.23169518177030       -0.04304153905296
C            1.19906786640268       -3.34145656117372        0.98657813742480
C            0.65927736773416       -2.07761911263391        1.00790535831694
C           -0.23652376786436       -1.67665605571346        0.00647096393949
N           -0.76936029480584       -0.39061293175258        0.02773937667965
C           -0.01291763514718        0.80776002563795        0.12399349086610
C            1.37600818123857        0.96416209793618        0.03239741448618
C            2.29182647046689       -0.01752234528990       -0.44410967254336
C            3.63478046950744        0.24236539904674       -0.49448870391357
C            4.12497328398133        1.48193472248151       -0.07930325656459
Br           5.98947908140298        1.81676560030187       -0.12781829097061
C            3.25069234341681        2.48779647707706        0.34899243387625
C            1.90974910172736        2.23902730529581        0.39285800800149
N           -0.83664315809884        1.87838774935402        0.21331718820759
C           -2.06662327901680        1.42829454082318        0.09616539786120
C           -3.26912587642282        2.19152770224221        0.03643703696042
C           -3.22505929298381        3.58720402985432        0.03608117311900
C           -4.38742913823980        4.32028752843430       -0.08095959890745
C           -5.59706139962295        3.65313416393228       -0.21067944595051
C           -5.64997959293858        2.27032817350781       -0.20178082805978
C           -4.49497550090362        1.49518821894859       -0.06415673440904
C           -4.51936865819455        0.03917586477263        0.00618674221328
C           -5.71984786705334       -0.66280537458427        0.05803864101716
C           -5.76751980678948       -2.04016359845898        0.18015913208751
C           -4.58491100216531       -2.77015766124426        0.28656590523738
C           -3.37853267007174       -2.12527863442750        0.23118440319749
C           -3.29861554375466       -0.71975446277382        0.06493105463930
C           -2.09203227039614       -0.01123543976788        0.00677586118505
C           -0.56842951323355       -2.56727639316282       -1.02405306938079
C           -0.02188104922053       -3.82796996505949       -1.05062689391667
H            1.87788886609422       -3.65867430957517        1.76386004030456
H            0.91037405818601       -1.38647329271074        1.79842761948448
H            1.93105848942342       -0.95828893000164       -0.82364565641747
H            4.31897425812771       -0.50560639036039       -0.86565091618365
H            3.64437617539171        3.44883182552848        0.64240044625595
H            1.21524133072719        2.99491104660943        0.72045429500485
H           -2.26055758936129        4.06278504157239        0.11984397586026
H           -4.35720497569822        5.39904525222491       -0.08086733545413
H           -6.51266363810971        4.21591300773981       -0.31866341328131
H           -6.61450575256849        1.80111255411179       -0.31044579223190
H           -6.65588571693955       -0.12955532824239        0.01833747310986
H           -6.72090124772879       -2.54454719535043        0.21335733573747
H           -4.61940336408704       -3.84096191798280        0.41893054303559
H           -2.47077982170243       -2.69357830704644        0.34471524505291
H           -1.24486333350561       -2.24598267338720       -1.80259021809173
H           -0.26442322992941       -4.51186057155101       -1.85020473003555
