  62
       -112.00016602
 F         -5.5835548004       -2.6879528996       -0.6756151631
 C         -4.4129367234       -2.3977014593       -0.0875588408
 N         -4.0416955120       -3.2201404031        0.8843664147
 C         -2.8807595835       -2.9453951328        1.4648128326
 F         -2.5043075815       -3.7886368031        2.4394470209
 C         -2.0679758402       -1.8906097021        1.1181844673
 F         -0.9053308898       -1.7111823295        1.7852298265
 C         -2.4369507179       -1.0096266012        0.0752583423
 C         -1.6731682241        0.2683938684       -0.1839359470
 C         -0.1750159269        0.1054896660       -0.1394873311
 C          0.4190082987       -1.0458958802       -0.6696283936
 C          1.7868681559       -1.2136288501       -0.6901612224
 C          2.5746578050       -0.1953752150       -0.1628462829
 C          1.9889270924        0.9964279004        0.3306836487
 C          0.6151074981        1.1462159989        0.3363054380
 C          3.0779412458        1.8444079233        0.7406561451
 C          3.1421545932        3.1052123962        1.3119025749
 C          4.3874878208        3.6313177591        1.6125895512
 C          5.5510404237        2.9095263762        1.3648127817
 C          5.5106746526        1.6478495921        0.7971626614
 C          4.2666749710        1.1267988808        0.4710460125
 N          3.9426081432       -0.1009058815       -0.0754348053
 C          4.8571655689       -1.0965377880       -0.4488680391
 C          5.9302492920       -0.7841234063       -1.2793080683
 C          6.8320292767       -1.7693435626       -1.6362358915
 C          6.6691973162       -3.0658170544       -1.1753029012
 C          5.5986441024       -3.3776827961       -0.3526758543
 C          4.6934112222       -2.3996088572        0.0143898686
 C         -2.0007488090        0.9610054594       -1.4926044141
 C         -1.6369583570        0.6125053204       -2.7640462586
 C         -2.0710918339        1.4033125625       -3.8296970889
 C         -2.8415210243        2.5564311664       -3.6025505024
 C         -3.1923236736        2.9397184368       -2.3364806153
 C         -2.7714178689        2.1488827163       -1.2427968733
 C         -2.9611188621        2.2933909557        0.1385279316
 C         -3.6703780319        3.2552378705        0.8945545359
 C         -3.6182629699        3.1943953479        2.2582332249
 C         -2.8837849059        2.1831368885        2.9159633233
 C         -2.2105811903        1.2028958427        2.1945006347
 C         -2.2484504302        1.2419285045        0.8229669890
 C         -3.6804836439       -1.3121128867       -0.5195981064
 F         -4.1741437093       -0.5539318885       -1.5199993501
 H         -0.2158711015       -1.8278006368       -1.0588131637
 H          2.2285967370       -2.1053550113       -1.1074587731
 H          0.1584053264        2.0498593798        0.7100396887
 H          2.2395160565        3.6584738815        1.5206689876
 H          4.4592224789        4.6128126513        2.0557553068
 H          6.5061744494        3.3393170756        1.6253119233
 H          6.4167277290        1.0864780957        0.6273592283
 H          6.0374399000        0.2223125477       -1.6561375547
 H          7.6609030330       -1.5245357746       -2.2831327561
 H          7.3750625819       -3.8319366666       -1.4568390070
 H          5.4712724955       -4.3853912568        0.0127292009
 H          3.8713703418       -2.6300030019        0.6755760332
 H         -1.0495078953       -0.2740297111       -2.9523939553
 H         -1.8248540000        1.1189438590       -4.8405328971
 H         -3.1540037807        3.1476147213       -4.4507808895
 H         -3.7699418001        3.8338789631       -2.1607389315
 H         -4.2356790686        4.0227720564        0.3884506728
 H         -4.1440381320        3.9244021891        2.8552729882
 H         -2.8583209509        2.1652973810        3.9941481760
 H         -1.6665018993        0.4300076061        2.7151665525
