62
 energy: -112.138415796311 gnorm: 0.000020362498 xtb: 6.7.1 (edcfbbe)
F           -5.37199594815834       -4.20321723563791        0.70335823089990
C           -4.29735802906052       -3.52517771275556        1.09960297481033
N           -3.69454617346675       -3.96533168442933        2.17926115237290
C           -2.64139073747021       -3.30088369377348        2.59719675411904
F           -2.05558058446764       -3.75400189339511        3.70360365560665
C           -2.13281375926802       -2.17900978697017        1.95191815997356
F           -1.06980089969722       -1.56408206719556        2.48829359606797
C           -2.73798566916298       -1.70415235349185        0.78092740207799
C           -2.24801608345966       -0.46188060798080        0.08200858681675
C           -0.73272671332560       -0.33763106562880        0.09608961951013
C            0.04894975077847       -1.47146827290201       -0.15243307817521
C            1.42634696572182       -1.41133718829249       -0.20036117217412
C            2.03216043523231       -0.17931933238135        0.00244572768923
C            1.25237590337697        0.98232976142672        0.20937096950568
C           -0.13151781924670        0.89777059112472        0.25733345239641
C            2.17521949226479        2.07551310137352        0.32808900962180
C            2.02066417514409        3.43839088059331        0.55032811205606
C            3.15108756077468        4.22616278936383        0.63506557356318
C            4.42379120500443        3.66946568819411        0.51661832594950
C            4.60283524844314        2.31756041396359        0.29450582208869
C            3.46957158852897        1.52318216384537        0.18583742621720
N            3.36626540360696        0.16031745376539       -0.01167167531022
C            4.44023288083182       -0.73268161298871       -0.16984140150857
C            5.41866014603189       -0.48681821343498       -1.12810278182856
C            6.47867350340774       -1.36391466957455       -1.27159783855391
C            6.56504014928950       -2.49218910296807       -0.47236833276549
C            5.58721776861053       -2.74120883739154        0.47698700383039
C            4.52911021869602       -1.86452607375584        0.63493707192855
C           -2.70189209823734       -0.33046616995589       -1.36382113503135
C           -2.35210147365264       -1.10546585803042       -2.44836764746910
C           -2.86066369595141       -0.76836005748322       -3.69579556040305
C           -3.69532082687029        0.32751188767269       -3.85140767158932
C           -4.03959366251434        1.11648307130475       -2.76586083325950
C           -3.53683962345426        0.78435999433192       -1.51881909130022
C           -3.71672049062132        1.41668015475495       -0.22185603703056
C           -4.45483594649247        2.52828699967454        0.15172938052727
C           -4.44186498729907        2.92049781812007        1.48096389089791
C           -3.70263858161503        2.21954570623064        2.42167021920635
C           -2.96083657576334        1.10310313205426        2.05572332990004
C           -2.97073026499378        0.71265123833776        0.73366025956678
C           -3.87401836591718       -2.41318163486943        0.37625130920884
F           -4.59099132020207       -2.04464405591811       -0.69323308297094
H           -0.43457479375417       -2.42711222132830       -0.30119401142433
H            2.00856084830563       -2.29844578459216       -0.39732975153791
H           -0.72438784419567        1.78440942473205        0.41880548479657
H            1.03517715955096        3.86639803310005        0.65729448323206
H            3.05362271438740        5.28829146822697        0.80526880552705
H            5.28978845528866        4.30947434439790        0.60266289359022
H            5.59266267017959        1.89354215335744        0.21935140674476
H            5.33672632628025        0.38389551509841       -1.76155735778737
H            7.23633727176747       -1.16858935936183       -2.01607480794709
H            7.39194581221465       -3.17638652436677       -0.58931849244536
H            5.65221249225316       -3.61776871242261        1.10473876847545
H            3.77523317858272       -2.04320067063176        1.38745927450309
H           -1.70114978856780       -1.95981976560088       -2.33885979369231
H           -2.60089442742945       -1.36985657932534       -4.55417763342934
H           -4.07973784952029        0.56900460964080       -4.83137358565229
H           -4.68586008125240        1.97197067331306       -2.88956205947607
H           -5.02936148186802        3.07655979514452       -0.57891525409284
H           -5.01317855414758        3.78378432224114        1.78885585614145
H           -3.70053190143749        2.54213123967580        3.45207662953657
H           -2.37801027201130        0.57285537376299        2.79360846788887
