62
 energy: -112.045212347593 gnorm: 0.000125746878 xtb: 6.7.1 (edcfbbe)
F           -5.62493255520861       -2.63252898100984       -0.66083313078472
C           -4.43982178899035       -2.36048365906145       -0.07258510372509
N           -4.09503118291078       -3.18751921824517        0.91962471327310
C           -2.91323623917811       -2.91534090051167        1.48140420908339
F           -2.53979047544732       -3.75299323512808        2.47334001065827
C           -2.08436093425437       -1.89306470954826        1.11169919782409
F           -0.90569164219417       -1.73165723738147        1.77301156992617
C           -2.42444665589352       -1.01118186165828        0.04815852357205
C           -1.66212595196142        0.27227289940978       -0.19297759651698
C           -0.16482598117001        0.10936438018756       -0.15011026325689
C            0.43037489040962       -1.04409755922520       -0.67552720384616
C            1.79815308449996       -1.21417857939057       -0.68902066832791
C            2.58643929541483       -0.19490242736692       -0.15825709309656
C            1.99836943492147        1.00135333789612        0.32864727228795
C            0.62699606972109        1.15394070206535        0.32625679906523
C            3.08996574274578        1.85085643408468        0.73952681012784
C            3.15507088388696        3.11209174690398        1.30580522398256
C            4.40490801519445        3.63662529193348        1.60768737640606
C            5.56695471701402        2.91194596311603        1.36545079272743
C            5.52420468558979        1.64642651808399        0.80279693559631
C            4.27801656041030        1.12860503694042        0.47457515744483
N            3.95130545213076       -0.10077922016860       -0.06730865846485
C            4.86559058066465       -1.09452707644626       -0.44167172117029
C            5.94547192429620       -0.77669074174541       -1.26396722677543
C            6.84495852102070       -1.76184796124406       -1.62597752601309
C            6.67733040696571       -3.06229897905036       -1.17508773865748
C            5.60237356412165       -3.37845501917376       -0.35820851826684
C            4.69563819237984       -2.40245730765753        0.01037804602763
C           -1.99587787661213        0.96896575564318       -1.50053428753258
C           -1.63817482180026        0.61745383433126       -2.77824821151950
C           -2.08447622063145        1.40325339424569       -3.83731717267991
C           -2.85888770454820        2.54536358148429       -3.60641656284754
C           -3.20290519978034        2.92429724995291       -2.33041554627678
C           -2.76825691899159        2.14013554532829       -1.25203327873982
C           -2.95664729625663        2.28260162083568        0.14836529657951
C           -3.67139776478487        3.22978166778634        0.89562365539819
C           -3.63077938872594        3.16169753089606        2.26602873875944
C           -2.89663325245537        2.15477253284212        2.91705198297695
C           -2.20896423271651        1.19089126534959        2.19537008088783
C           -2.23895458797225        1.24179834524324        0.81779386693964
C           -3.68885437695570       -1.30769523609692       -0.52393363355613
F           -4.17876030904333       -0.55486022127239       -1.54360877333485
H           -0.20617771323505       -1.82535104649709       -1.06440502944403
H            2.23729212679719       -2.10747352772561       -1.10429830903548
H            0.16699649301605        2.05789777742006        0.69385436479652
H            2.25473158060274        3.66925203184216        1.51228556847172
H            4.47639895287370        4.61973981557117        2.04747571364050
H            6.52266431149592        3.34021918724806        1.62602477694822
H            6.42882691605931        1.08266685193672        0.63840859874531
H            6.05487690803412        0.23035649824883       -1.63653963803686
H            7.67565180226581       -1.51504614047727       -2.26951662518650
H            7.38223081518591       -3.82831046160165       -1.45970200806741
H            5.47256118746347       -4.38831808925969        0.00045137872277
H            3.87226198852241       -2.63708308027207        0.66821653758599
H           -1.04735981165460       -0.26636233032939       -2.96719734353002
H           -1.84039103205634        1.12073017252349       -4.84983843540263
H           -3.18510976077676        3.13699335525642       -4.44914489835237
H           -3.78843090046106        3.81282277064640       -2.15158691960539
H           -4.23631815488029        3.99992706368316        0.39292237180732
H           -4.16619094184595        3.88632434578941        2.86107805832781
H           -2.87703937101685        2.12711717409186        3.99590982272709
H           -1.65881386591505        0.41816184036400        2.71130055416409
