62
 energy: -112.138473830567 gnorm: 0.000093555427 xtb: 6.7.1 (edcfbbe)
F           -5.50657390979590       -2.83715729675590       -0.50651631700536
C           -4.35170621061750       -2.48634527803658        0.05450503139461
N           -3.89705149090024       -3.27688508166773        0.99843474794065
C           -2.76632359902041       -2.94080132348872        1.57617275074167
F           -2.33230252856706       -3.74748568524760        2.54234909095998
C           -2.03146976293649       -1.81176002030962        1.23159374490253
F           -0.90620949486092       -1.55301827168233        1.91184295877950
C           -2.47804943355301       -0.96484688427468        0.20874600270504
C           -1.73827050091295        0.29650622255190       -0.15648329647945
C           -0.22809785942539        0.13020525995609       -0.10148456263407
C            0.35074672657947       -1.03544568908340       -0.61588858664721
C            1.71760382363614       -1.22031831163636       -0.64307571582723
C            2.52231483046299       -0.20525132773692       -0.14491255810250
C            1.95195567341783        0.99464642123372        0.34031119503929
C            0.57441853444327        1.15757111544002        0.36115781634374
C            3.04721838843417        1.83851890488221        0.72617879680822
C            3.12579348194829        3.11025337665874        1.28041152187692
C            4.37261580992859        3.63374984371978        1.55783609625755
C            5.53104669969949        2.90195257839950        1.30066981828886
C            5.47832694859752        1.63562488359956        0.75049372756331
C            4.22853025559826        1.11121386532968        0.45042378597629
N            3.89470398634753       -0.12118952859966       -0.07572804779118
C            4.80005772062318       -1.12795541502819       -0.45408455256868
C            5.84192076134881       -0.83779695311562       -1.32953591738583
C            6.73462362827626       -1.83052844802231       -1.69157521777671
C            6.59020632563054       -3.11537042167214       -1.19399932657731
C            5.54931621467098       -3.40627020200658       -0.32721444311884
C            4.65726529220954       -2.41794929672107        0.04793039797354
C           -2.08366501058950        0.85621985705186       -1.52799453386281
C           -1.81742802593701        0.31735920717339       -2.76811912507293
C           -2.18632164389146        1.03690691339610       -3.89704659732259
C           -2.80243494768215        2.27349006043467       -3.78263332333633
C           -3.06378829761800        2.82301834892993       -2.53794576060574
C           -2.69940454920055        2.10939456499482       -1.40826464290173
C           -2.83675906374026        2.42878833145522        0.00363197283721
C           -3.39260047760134        3.52958049591442        0.63550101605230
C           -3.38267329917521        3.57797103190878        2.02057562757359
C           -2.82358944226961        2.54937718994282        2.76360488407235
C           -2.26635598678099        1.44092179119553        2.13798397154542
C           -2.27558445663401        1.39071760535578        0.76042112786979
C           -3.69798531220367       -1.33212202763116       -0.36905779431927
F           -4.27862260578020       -0.59041800833066       -1.32119631553835
H           -0.28722384338446       -1.82168048251061       -0.99553727980498
H            2.14156805789090       -2.12600036891771       -1.04894989398968
H            0.14157101088933        2.07258845501374        0.73413346821176
H            2.22734727503970        3.67041780810644        1.49232553371534
H            4.45685024258351        4.62103434174244        1.98769722595374
H            6.49194509512591        3.33327718675489        1.54081047782224
H            6.38027750856567        1.07075775908711        0.56981930635376
H            5.93948395322446        0.16075087971118       -1.72901342805656
H            7.54216482545751       -1.60077507789713       -2.37100915661897
H            7.28694518696883       -3.88854272339996       -1.48116257126041
H            5.43509043152180       -4.40567201769022        0.06622015647527
H            3.85539845548661       -2.63479370468309        0.73828958774903
H           -1.33521958300285       -0.64341431948249       -2.86858089373552
H           -1.98885150214380        0.62544161162339       -4.87572611865713
H           -3.08019982947887        2.81464056808844       -4.67510002224116
H           -3.54063482965752        3.78730583893968       -2.45060709351594
H           -3.82610734208401        4.33237534123975        0.05916626559684
H           -3.81417115552400        4.42778565956998        2.52863505744615
H           -2.81928084942481        2.60633290471984        3.84177937678637
H           -1.82298071456179        0.65161997361950        2.72601211918945
