  63
       -106.07697107
 N          2.0699809259        3.5965220899       -0.7932189694
 C          1.6107856423        2.6012751595       -0.4486588957
 C          1.0174462573        1.3781809845       -0.0743316357
 C         -0.3587619829        1.2646001724       -0.1335642856
 C         -0.9931853614        0.0356461518        0.1188878249
 C         -2.4039301477       -0.0710579432        0.0645198932
 N         -3.1606914512        1.0121042754       -0.2352078787
 C         -4.4605119134        0.8885478641       -0.2745138158
 C         -5.2768149033        2.0535086492       -0.5922624195
 C         -4.6751506301        3.2837164301       -0.8605889888
 C         -5.4532466194        4.3820447735       -1.1648249302
 C         -6.8352645799        4.2684133070       -1.2048439277
 C         -7.4384334283        3.0488658871       -0.9381484316
 C         -6.6670575188        1.9451728012       -0.6332052425
 N         -5.0870722368       -0.2802634552       -0.0390093668
 C         -4.3084253053       -1.3397409171        0.2458765799
 C         -4.9560269071       -2.6219051071        0.4959682802
 C         -4.1911892295       -3.7518233558        0.7868817654
 C         -4.8095075627       -4.9629735397        1.0221214367
 C         -6.1918678715       -5.0621247481        0.9709137245
 C         -6.9565544106       -3.9426758193        0.6818367475
 C         -6.3455520505       -2.7273142729        0.4446125230
 N         -3.0062145603       -1.2600694227        0.3109316726
 C         -0.1823858920       -1.0941586197        0.4013598245
 C          1.1795364835       -0.9817285340        0.4685198973
 C          1.8067957083        0.2523728116        0.2655823658
 N          3.2008589438        0.3479297634        0.3542771269
 C          3.9489191979        1.3228358578        0.9990163072
 C          3.5549594454        2.3867389151        1.7948203664
 C          4.5466924994        3.1894190770        2.3285108117
 C          5.8953768756        2.9395702778        2.0923067614
 C          6.3062901216        1.8582123559        1.3305346193
 C          5.3237600269        1.0484030809        0.7949048739
 N          5.3712777364       -0.1046166323        0.0468479254
 C          6.1973681366       -1.0293456984       -0.5551650612
 C          7.5652667460       -1.1585322754       -0.6622767088
 C          8.0428762924       -2.2551093449       -1.3647358085
 C          7.1799132951       -3.1872101091       -1.9381185903
 C          5.8082484078       -3.0668152594       -1.8365542910
 C          5.3010050523       -1.9757949389       -1.1381022735
 N          3.9949405656       -1.6339646690       -0.8969113249
 C          4.0791602106       -0.5273985834       -0.2015579930
 H         -0.9617426963        2.1197470567       -0.3973447817
 H         -3.5990271981        3.3568547861       -0.8269709357
 H         -4.9840947214        5.3324569938       -1.3729903515
 H         -7.4409269385        5.1299697141       -1.4442775330
 H         -8.5146188637        2.9616579563       -0.9698402236
 H         -7.1206622587        0.9888163194       -0.4240125020
 H         -3.1171087732       -3.6584995264        0.8229490662
 H         -4.2147797486       -5.8361916916        1.2463719352
 H         -6.6721845826       -6.0117199543        1.1555144483
 H         -8.0330644751       -4.0206578216        0.6420394081
 H         -6.9259892065       -1.8468167347        0.2174722994
 H         -0.6693679214       -2.0415401519        0.5656222079
 H          1.7975665990       -1.8402501136        0.6808750534
 H          2.5146049942        2.5801602260        1.9977290979
 H          4.2661685419        4.0280917789        2.9460791876
 H          6.6373737553        3.5940067211        2.5223854004
 H          7.3513486530        1.6508771480        1.1661059087
 H          8.2380638146       -0.4393554187       -0.2216000826
 H          9.1088804013       -2.3882224115       -1.4692237569
 H          7.5992043122       -4.0241929541       -2.4758542851
 H          5.1381049464       -3.7849928423       -2.2795512980
  63
       -106.07679074
 N          2.1036946548        3.4996323284       -0.8741454066
 C          1.6345458170        2.5051683159       -0.5410926283
 C          1.0251714823        1.2878818320       -0.1732990538
 C         -0.3500202303        1.1800047028       -0.2458247157
 C         -0.9924183418       -0.0434810349        0.0152136656
 C         -2.4055605160       -0.1280521733       -0.0171265964
 N         -3.1434472400        0.9731961136       -0.3036305138
 C         -4.4464600957        0.8855586461       -0.2926847372
 C         -5.2457874056        2.0686830470       -0.5872495998
 C         -6.6385444177        1.9884807581       -0.5849859106
 C         -7.3969692076        3.1088388561       -0.8598581249
 C         -6.7777932546        4.3173894918       -1.1398083396
 C         -5.3931910653        4.4024669228       -1.1450087804
 C         -4.6279299112        3.2871221828       -0.8706553878
 N         -5.0940758363       -0.2617492808       -0.0179284578
 C         -4.3352149277       -1.3415704801        0.2465055043
 C         -5.0164593335       -2.5951826911        0.5450184078
 C         -6.4073464438       -2.6240661917        0.6496323780
 C         -7.0556225575       -3.8079431491        0.9393837328
 C         -6.3273003252       -4.9731883169        1.1237072390
 C         -4.9442651711       -4.9505808009        1.0185750081
 C         -4.2883002442       -3.7703395017        0.7323674133
 N         -3.0295149071       -1.2996068599        0.2561886527
 C         -0.1881807482       -1.1774354377        0.2997513526
 C          1.1746072832       -1.0706086231        0.3778893830
 C          1.8066024481        0.1614930321        0.1833283945
 N          3.1965870410        0.2746257829        0.3161724695
 C          3.8913487417        1.2560344774        1.0088904960
 C          3.4350152012        2.2840877165        1.8183185764
 C          4.3807433164        3.1053670287        2.4043925632
 C          5.7440103191        2.9081693380        2.2044951147
 C          6.2162752539        1.8637080380        1.4269057856
 C          5.2798212589        1.0354484287        0.8391458394
 N          5.3886284610       -0.0923464367        0.0600945420
 C          6.2647281351       -0.9647304457       -0.5483681649
 C          7.6389973608       -1.0369916854       -0.6226717815
 C          8.1775221278       -2.0888153270       -1.3490220053
 C          7.3666297315       -3.0328954801       -1.9762819792
 C          5.9889845066       -2.9693734469       -1.9073177521
 C          5.4208483984       -1.9236089683       -1.1866400470
 N          4.0964431757       -1.6382905980       -0.9716373435
 C          4.1197417256       -0.5526267279       -0.2395875638
 H         -0.9474485339        2.0360723359       -0.5189098010
 H         -7.1044026361        1.0401955358       -0.3660083444
 H         -8.4751522966        3.0431758573       -0.8568652841
 H         -7.3731552717        5.1925592700       -1.3544809667
 H         -4.9118758724        5.3442140025       -1.3645423712
 H         -3.5500170163        3.3386222231       -0.8728530488
 H         -6.9587306782       -1.7079996738        0.5044545328
 H         -8.1324479614       -3.8258223431        1.0226923306
 H         -6.8367472619       -5.8984808975        1.3490447958
 H         -4.3788880287       -5.8599980180        1.1602006097
 H         -3.2131131391       -3.7374558873        0.6463032152
 H         -0.6799443891       -2.1225263780        0.4633126304
 H          1.7875603882       -1.9309866468        0.5979976483
 H          2.3822195207        2.4358058417        1.9911775122
 H          4.0521673641        3.9169688712        3.0343427352
 H          6.4488751648        3.5756098812        2.6751668851
 H          7.2726500629        1.6983604738        1.2895290428
 H          8.2710751421       -0.3077018722       -0.1402413981
 H          9.2502934216       -2.1763588725       -1.4300137044
 H          7.8322409937       -3.8335326464       -2.5310059125
 H          5.3598734835       -3.6971840338       -2.3927382661
  63
       -106.07678134
 N          2.0423560112        3.5682400544       -1.0963122835
 C          1.5961081900        2.5907313086       -0.6894634001
 C          1.0131340099        1.3857978605       -0.2463562780
 C         -0.3634433869        1.2663437038       -0.2883671915
 C         -0.9919068864        0.0443504233        0.0083775299
 C         -2.4034735420       -0.0649933841       -0.0098152451
 N         -3.1717072718        1.0281973108       -0.2362303196
 C         -4.4722956277        0.9043033135       -0.2183686492
 C         -5.3033447416        2.0861210554       -0.4124448329
 C         -4.7166709766        3.3390371675       -0.5945561350
 C         -5.5099173974        4.4554720055       -0.7644708209
 C         -6.8920781229        4.3373980909       -0.7550544334
 C         -7.4803129641        3.0948115077       -0.5756609287
 C         -6.6937859136        1.9730429373       -0.4049264746
 N         -5.0875200219       -0.2773376718       -0.0226617480
 C         -4.2975525303       -1.3474468620        0.1810731756
 C         -4.9331184934       -2.6442445192        0.3796653164
 C         -6.3233678985       -2.7545171518        0.3568085533
 C         -6.9228521386       -3.9849369924        0.5387612457
 C         -6.1461027678       -5.1146376922        0.7450085419
 C         -4.7630114643       -5.0105647389        0.7686168018
 C         -4.1561440728       -3.7845279871        0.5869690954
 N         -2.9942610856       -1.2642511906        0.2114587432
 C         -0.1737086448       -1.0769738489        0.3034976970
 C          1.1871919496       -0.9552960959        0.3681350143
 C          1.8087861617        0.2775353867        0.1361789966
 N          3.1991165045        0.3844354494        0.2477152320
 C          3.9326066427        1.4025837943        0.8426338008
 C          3.5225373593        2.5251733842        1.5445108690
 C          4.5025945696        3.3610691233        2.0479945655
 C          5.8562972271        3.0876789552        1.8757922680
 C          6.2826539298        1.9474382808        1.2153094111
 C          5.3115251254        1.1043867812        0.7110695833
 N          5.3759885563       -0.1064725204        0.0627589104
 C          6.2155080978       -1.0916427537       -0.4108761462
 C          7.5849587890       -1.2443772297       -0.4396587983
 C          8.0784434764       -2.4102752427       -1.0063070378
 C          7.2292499630       -3.3857372145       -1.5257749736
 C          5.8563180533       -3.2416059923       -1.5030326495
 C          5.3333004849       -2.0818038095       -0.9400134631
 N          4.0226119456       -1.7073792335       -0.7899947912
 C          4.0901999685       -0.5408781591       -0.1975845663
 H         -0.9709590897        2.1098854458       -0.5780190919
 H         -3.6402885116        3.4160794136       -0.5978448394
 H         -5.0525588795        5.4240382049       -0.9040285251
 H         -7.5095167607        5.2136702435       -0.8868026594
 H         -8.5566140565        3.0040450898       -0.5677992452
 H         -7.1357036325        0.9992127078       -0.2616036268
 H         -6.9132905320       -1.8657087006        0.1946574564
 H         -7.9997460839       -4.0672248316        0.5204678199
 H         -6.6175316142       -6.0759379378        0.8870940331
 H         -4.1590779268       -5.8917393005        0.9290382595
 H         -3.0814385865       -3.6874853256        0.6024300360
 H         -0.6548560722       -2.0232865825        0.4895476171
 H          1.8098037974       -1.8047695422        0.6016684091
 H          2.4785981082        2.7387266664        1.7027502911
 H          4.2080763723        4.2451627689        2.5911687310
 H          6.5889513433        3.7693636183        2.2786209189
 H          7.3306372102        1.7202933037        1.1045593293
 H          8.2470882074       -0.4924112609       -0.0394969490
 H          9.1460554582       -2.5647669006       -1.0443782289
 H          7.6606641462       -4.2767485535       -1.9564700227
 H          5.1970596523       -3.9938916079       -1.9035793258
  63
       -106.07673848
 N          2.1124160450        3.5889069156       -0.5536177055
 C          1.6333748687        2.5817273895       -0.2774329781
 C          1.0236336061        1.3470356545        0.0256073199
 C         -0.3520658171        1.2428094891       -0.0522146414
 C         -0.9944954173        0.0104928835        0.1608975668
 C         -2.4053282875       -0.0866959967        0.0886823943
 N         -3.1469381258        0.9888884532       -0.2719707926
 C         -4.4457851732        0.8706089382       -0.3441982974
 C         -5.2430849696        2.0180085139       -0.7598493592
 C         -4.6228614693        3.2192262566       -1.1058251694
 C         -5.3825464889        4.2972981712       -1.5121999184
 C         -6.7642287489        4.1918898407       -1.5783614975
 C         -7.3858388982        3.0015066883       -1.2335199910
 C         -6.6329970463        1.9183829219       -0.8257415267
 N         -5.0878945190       -0.2784732379       -0.0603820707
 C         -4.3252104513       -1.3273395277        0.2998187616
 C         -4.9919956810       -2.5825351132        0.6237672878
 C         -6.3801461469       -2.6832347803        0.5299742854
 C         -7.0105428348       -3.8708802025        0.8438165495
 C         -6.2670732445       -4.9672787320        1.2529489351
 C         -4.8861388661       -4.8728579915        1.3469817582
 C         -4.2484491375       -3.6893131877        1.0352849647
 N         -3.0230197627       -1.2581046349        0.3761270182
 C         -0.1931597617       -1.1300163163        0.4257837154
 C          1.1700619015       -1.0293853447        0.4964207468
 C          1.8045004604        0.2049575184        0.3273683713
 N          3.2006715891        0.2949254005        0.4136297868
 C          3.9457082826        1.2155901117        1.1352711762
 C          3.5465290587        2.2021016090        2.0225156135
 C          4.5348706618        2.9617228573        2.6214569629
 C          5.8840339151        2.7446759108        2.3568716706
 C          6.2995553442        1.7426352651        1.4954361586
 C          5.3206168226        0.9760556883        0.8935331654
 N          5.3707720081       -0.1000174348        0.0384297299
 C          6.1980312933       -0.9444996942       -0.6704461583
 C          7.5652999664       -1.0398663658       -0.8146474143
 C          8.0446313246       -2.0462867315       -1.6402298348
 C          7.1838852313       -2.9245279079       -2.2960233868
 C          5.8128428260       -2.8380472440       -2.1572552007
 C          5.3038342265       -1.8370195438       -1.3360858129
 N          3.9976054557       -1.5406391083       -1.0408349535
 C          4.0797802059       -0.5114026627       -0.2356848077
 H         -0.9489697538        2.1099498480       -0.2894408036
 H         -3.5470305335        3.2856000579       -1.0533774985
 H         -4.8989747874        5.2247503762       -1.7818867276
 H         -7.3553886222        5.0377322037       -1.8972038967
 H         -8.4617498270        2.9205372112       -1.2853218740
 H         -7.1010337101        0.9841895930       -0.5564838275
 H         -6.9439682786       -1.8206255362        0.2102020552
 H         -8.0856051198       -3.9457179774        0.7702483344
 H         -6.7626259621       -5.8952400764        1.4974872047
 H         -4.3081307468       -5.7281901675        1.6649428720
 H         -3.1751063494       -3.6001007720        1.1039011338
 H         -0.6870773002       -2.0779802454        0.5646042101
 H          1.7818466201       -1.8982167303        0.6844237946
 H          2.5045874847        2.3694634358        2.2411420853
 H          4.2517814582        3.7407322378        3.3118282463
 H          6.6234333989        3.3630074348        2.8414853534
 H          7.3453939210        1.5622400068        1.3059210490
 H          8.2363343543       -0.3615692575       -0.3109313718
 H          9.1101261276       -2.1494454682       -1.7783210788
 H          7.6043050576       -3.6913472733       -2.9291627933
 H          5.1443898945       -3.5144208159       -2.6640536835
  63
       -106.07663632
 N          2.1131717012        3.5773789739       -0.5054337598
 C          1.6337677464        2.5689254551       -0.2351298991
 C          1.0241459919        1.3324838744        0.0608847949
 C         -0.3512786224        1.2281296268       -0.0183558825
 C         -0.9939518119       -0.0047190649        0.1911717275
 C         -2.4046159232       -0.0996047365        0.1101712930
 N         -3.1385818884        0.9771444606       -0.2618107138
 C         -4.4366241803        0.8633806478       -0.3503348092
 C         -5.2237353716        2.0092576238       -0.7882682551
 C         -6.6080925482        1.8990148717       -0.9195973888
 C         -7.3505238420        2.9801155812       -1.3511061524
 C         -6.7239783853        4.1792574215       -1.6541886124
 C         -5.3478364695        4.2949597779       -1.5236793741
 C         -4.5985128168        3.2186921516       -1.0941658649
 N         -5.0858268350       -0.2814840297       -0.0655812644
 C         -4.3313377217       -1.3304607577        0.3105599718
 C         -5.0091413857       -2.5781368750        0.6410595056
 C         -6.4007676045       -2.6544795787        0.5843378613
 C         -7.0430858157       -3.8333017122        0.9068885493
 C         -6.3078879129       -4.9456754094        1.2865196650
 C         -4.9236068286       -4.8757022255        1.3430999937
 C         -4.2741523428       -3.7006041931        1.0237068299
 N         -3.0293443503       -1.2676108830        0.3969513995
 C         -0.1931622247       -1.1450338066        0.4576930748
 C          1.1704197331       -1.0446242687        0.5276248499
 C          1.8049876386        0.1893479469        0.3584187923
 N          3.2018823890        0.2802679958        0.4379770550
 C          3.9488306860        1.1978545848        1.1612966539
 C          3.5526724279        2.1736297275        2.0616627445
 C          4.5424763864        2.9340891200        2.6571463249
 C          5.8901451733        2.7279093326        2.3766004433
 C          6.3028881696        1.7370583284        1.5009887583
 C          5.3224912871        0.9700258019        0.9020441440
 N          5.3699931134       -0.0952464265        0.0333638836
 C          6.1944495371       -0.9216685408       -0.6995981740
 C          7.5604171974       -1.0034846211       -0.8632394659
 C          8.0366581441       -1.9916452930       -1.7123118451
 C          7.1741844501       -2.8655226792       -2.3716054294
 C          5.8044587874       -2.7928344544       -2.2130868179
 C          5.2984694493       -1.8100350781       -1.3684383069
 N          3.9938977311       -1.5285085558       -1.0520634710
 C          4.0786755245       -0.5115116166       -0.2318470660
 H         -0.9480082115        2.0952945762       -0.2557253186
 H         -7.0798721698        0.9585225679       -0.6812851669
 H         -8.4220369174        2.8909030944       -1.4537928205
 H         -7.3067176791        5.0230381719       -1.9930924942
 H         -4.8603770843        5.2293395093       -1.7606429033
 H         -3.5269419690        3.2931571203       -0.9915944714
 H         -6.9582001209       -1.7790282510        0.2887244233
 H         -8.1210026304       -3.8883917764        0.8640443306
 H         -6.8128024964       -5.8664576156        1.5389068675
 H         -4.3523273253       -5.7432708829        1.6391837257
 H         -3.1981545834       -3.6300862207        1.0645739435
 H         -0.6870460867       -2.0927623260        0.5979352753
 H          1.7817744246       -1.9133908366        0.7173325685
 H          2.5120140479        2.3314379421        2.2931156127
 H          4.2619909441        3.7038816052        3.3587284095
 H          6.6307103999        3.3461684885        2.8594599213
 H          7.3477036625        1.5661835273        1.2976369897
 H          8.2326816890       -0.3280745850       -0.3573145439
 H          9.1010401377       -2.0838475159       -1.8660641013
 H          7.5921273197       -3.6175311904       -3.0238583244
 H          5.1346606296       -3.4656910164       -2.7228508714
  63
       -106.07592468
 N          2.4265389759        2.8041827481       -1.3174097481
 C          1.8603511075        1.9174763560       -0.8574568723
 C          1.1306576906        0.8875755898       -0.2263994741
 C         -0.2437641729        0.8533126921       -0.3468463019
 C         -1.0043735753       -0.1039039193        0.3500359594
 C         -2.4124201919       -0.1438640629        0.2082927449
 N         -3.0430264172        0.7558182287       -0.5862461452
 C         -4.3402507909        0.6887683081       -0.7199966404
 C         -5.0156918208        1.6460356844       -1.5879327400
 C         -4.2853818414        2.6337998892       -2.2490639341
 C         -4.9292385157        3.5347212711       -3.0726616214
 C         -6.3033631000        3.4622993490       -3.2464884366
 C         -7.0339288219        2.4831273225       -2.5914655070
 C         -6.3972522171        1.5780941069       -1.7656143746
 N         -5.0889406778       -0.2322217887       -0.0853753388
 C         -4.4353434740       -1.1073219252        0.7026210422
 C         -5.2183642964       -2.1209984546        1.3983384915
 C         -6.6050493216       -2.1585926071        1.2510389945
 C         -7.3448005395       -3.1230680719        1.9059020948
 C         -6.7132839264       -4.0575937488        2.7121572090
 C         -5.3346420454       -4.0241964214        2.8630977297
 C         -4.5882023802       -3.0634096004        2.2120073377
 N         -3.1382325866       -1.0861078278        0.8570823734
 C         -0.3261141609       -1.0222295917        1.1909550630
 C          1.0384521556       -0.9930152406        1.3061835667
 C          1.7924294608       -0.0512299244        0.6005920744
 N          3.1920641696       -0.0404101558        0.6826014324
 C          3.9741044151       -0.0166435543        1.8262626673
 C          3.6145757964        0.0026508893        3.1640890424
 C          4.6331857787        0.0371644945        4.0999653779
 C          5.9721708908        0.0573355038        3.7202789566
 C          6.3460890580        0.0565438233        2.3861529496
 C          5.3376908934        0.0239156701        1.4422397789
 N          5.3421249185        0.0288108461        0.0675278436
 C          6.1314993197        0.0219284679       -1.0629677266
 C          7.4926125319        0.0515987912       -1.2748231428
 C          7.9272987276        0.0281831915       -2.5922686970
 C          7.0292136167       -0.0235251651       -3.6566009872
 C          5.6636707864       -0.0558644054       -3.4547556267
 C          5.1989715233       -0.0343147892       -2.1435669059
 N          3.9087956681       -0.0667595096       -1.6828905984
 C          4.0351215610       -0.0144123184       -0.3817780694
 H         -0.7529357841        1.5700714852       -0.9720785615
 H         -3.2167508830        2.6782423723       -2.1044392228
 H         -4.3603785854        4.2978905816       -3.5832928771
 H         -6.8036452770        4.1685568308       -3.8925959227
 H         -8.1043281666        2.4273742341       -2.7278814782
 H         -6.9505985807        0.8095490101       -1.2494448992
 H         -7.0810126703       -1.4244265678        0.6197786177
 H         -8.4183194453       -3.1498475589        1.7890973331
 H         -7.2942391107       -4.8117179680        3.2223486310
 H         -4.8440866877       -4.7530952237        3.4915507628
 H         -3.5150250340       -3.0254449382        2.3181137060
 H         -0.9115597987       -1.7531997806        1.7249731995
 H          1.5525853972       -1.7151238341        1.9237376303
 H          2.5778447040        0.0014349367        3.4606344927
 H          4.3828684995        0.0525253336        5.1493393447
 H          6.7364981194        0.0820317606        4.4813111362
 H          7.3832798605        0.0848826153        2.0936978211
 H          8.1931812905        0.0924100528       -0.4551510421
 H          8.9870637642        0.0517159018       -2.7959434234
 H          7.4156271191       -0.0376886250       -4.6645787823
 H          4.9655783869       -0.0928002657       -4.2745560068
  63
       -106.07577468
 N          2.4075946550        2.8316391993       -1.1675463359
 C          1.8571317462        1.8995119811       -0.7845158078
 C          1.1368152529        0.8174828381       -0.2345783744
 C         -0.2369131637        0.7878557346       -0.3647533992
 C         -1.0018343703       -0.2030307541        0.2779861503
 C         -2.4120751845       -0.2142209362        0.1516186570
 N         -3.0294206356        0.6894597632       -0.6485034993
 C         -4.3296373558        0.6542026334       -0.7648904069
 C         -4.9897586926        1.6034439807       -1.6529917500
 C         -4.2370108733        2.5227065191       -2.3846171208
 C         -4.8663442736        3.4161957564       -3.2272791513
 C         -6.2479853832        3.4039019583       -3.3508023558
 C         -7.0006453321        2.4921631923       -2.6265954738
 C         -6.3785818777        1.5950266153       -1.7812272926
 N         -5.0941803467       -0.2252825982       -0.0918104778
 C         -4.4540145562       -1.0959323439        0.7120390223
 C         -5.2586613981       -2.0411289033        1.4760967118
 C         -6.6468871913       -2.0505742671        1.3385108044
 C         -7.4090314424       -2.9394403375        2.0700971080
 C         -6.7986983554       -3.8250780774        2.9449955241
 C         -5.4185942851       -3.8200615695        3.0857793888
 C         -4.6496920608       -2.9354129275        2.3573992184
 N         -3.1531018248       -1.1216304522        0.8320879347
 C         -0.3261231787       -1.1750189060        1.0581892158
 C          1.0389123677       -1.1598680485        1.1701812602
 C          1.7965802454       -0.1724272804        0.5331632225
 N          3.1938661580       -0.1582390481        0.6345666719
 C          3.9604749847       -0.2453887217        1.7867541380
 C          3.5852357658       -0.3841823534        3.1133470482
 C          4.5913043823       -0.4362599701        4.0618557334
 C          5.9341461315       -0.3459818748        3.7069950032
 C          6.3236600214       -0.1849238506        2.3872702133
 C          5.3276710462       -0.1306744668        1.4312338115
 N          5.3502745521        0.0321941069        0.0666157224
 C          6.1546395260        0.1836262063       -1.0428778993
 C          7.5164356990        0.2859931311       -1.2254325830
 C          7.9690916897        0.4388010476       -2.5280807299
 C          7.0876889742        0.4852543931       -3.6065069191
 C          5.7217835133        0.3802287096       -3.4343795515
 C          5.2390565798        0.2268953423       -2.1385090388
 N          3.9448509419        0.1006028820       -1.7070068541
 C          4.0511633096        0.0066003954       -0.4062416314
 H         -0.7435715250        1.5440488439       -0.9438913574
 H         -3.1630486428        2.5192310937       -2.2799367548
 H         -4.2806075640        4.1262381116       -3.7924629145
 H         -6.7369902571        4.1045638203       -4.0114491730
 H         -8.0764043985        2.4832925709       -2.7240806656
 H         -6.9495306876        0.8788985616       -1.2108161501
 H         -7.1063532950       -1.3540715363        0.6544658744
 H         -8.4837770088       -2.9435033762        1.9616643496
 H         -7.3972771649       -4.5188487416        3.5167788855
 H         -4.9445693449       -4.5105417108        3.7680842941
 H         -3.5752941687       -2.9188499679        2.4566604912
 H         -0.9132720156       -1.9370839793        1.5448037710
 H          1.5501350425       -1.9269073832        1.7333920999
 H          2.5458323005       -0.4372214882        3.3949088132
 H          4.3275025650       -0.5461116424        5.1022410582
 H          6.6883599069       -0.3936579273        4.4769398740
 H          7.3632613939       -0.1005983140        2.1148611874
 H          8.2039753596        0.2528481818       -0.3944739893
 H          9.0298065320        0.5252642621       -2.7085786469
 H          7.4877491814        0.6085113123       -4.6016379293
 H          5.0365002313        0.4202002527       -4.2647187807
  63
       -106.07567710
 N          2.4535821628        2.7043612330       -1.5277685122
 C          1.8668183353        1.8637421273       -1.0105983705
 C          1.1279737227        0.8818656817       -0.3173614701
 C         -0.2472173255        0.8455955089       -0.4318614151
 C         -1.0058002398       -0.0805311007        0.3075704714
 C         -2.4150473264       -0.1263927355        0.1778284024
 N         -3.0632315493        0.7880229096       -0.5841351952
 C         -4.3637836785        0.7255508451       -0.6861473908
 C         -5.0651589668        1.7237045336       -1.4839877321
 C         -6.4540891488        1.6743598978       -1.6038331298
 C         -7.1184816696        2.6265340863       -2.3509037261
 C         -6.4084342127        3.6344696208       -2.9850209060
 C         -5.0269703351        3.6875289995       -2.8701857282
 C         -4.3553899457        2.7397675249       -2.1250095143
 N         -5.0953977904       -0.2239028890       -0.0724816602
 C         -4.4230668271       -1.1220500344        0.6714593903
 C         -5.1846440875       -2.1765673280        1.3296474604
 C         -6.5719795651       -2.2284012981        1.1942485514
 C         -7.2899449323       -3.2360344511        1.8071484480
 C         -6.6357230487       -4.1993982202        2.5595067118
 C         -5.2563104676       -4.1518044194        2.6985704085
 C         -4.5315273098       -3.1481898900        2.0888685522
 N         -3.1250886397       -1.0893189334        0.8148442693
 C         -0.3259911890       -0.9640183167        1.1839044407
 C          1.0378491841       -0.9227212859        1.3039311270
 C          1.7894396079       -0.0125820165        0.5567230011
 N          3.1894542518        0.0132775866        0.6538883799
 C          3.9476177121        0.1674617332        1.8027176847
 C          3.5579665758        0.3301686682        3.1220008416
 C          4.5557799266        0.4767890061        4.0692982599
 C          5.9024590318        0.4662450113        3.7172287271
 C          6.3057580606        0.3183259485        2.3998765723
 C          5.3183602943        0.1724804774        1.4444917262
 N          5.3504370945        0.0221758729        0.0783150796
 C          6.1631870536       -0.1185257651       -1.0264126560
 C          7.5286747667       -0.1204128910       -1.2101549819
 C          7.9913852585       -0.3058428113       -2.5050012477
 C          7.1158490468       -0.4826220315       -3.5746255101
 C          5.7459876092       -0.4826901374       -3.4007414682
 C          5.2532864017       -0.3000403911       -2.1125125990
 N          3.9533293443       -0.2758562397       -1.6789128571
 C          4.0526942952       -0.0749205039       -0.3900155046
 H         -0.7569398803        1.5315135401       -1.0903974410
 H         -6.9916239559        0.8839855442       -1.1032751286
 H         -8.1942450015        2.5864718389       -2.4405719714
 H         -6.9306129214        4.3790152714       -3.5676486525
 H         -4.4746809640        4.4732249967       -3.3645089208
 H         -3.2813192293        2.7695139889       -2.0255241877
 H         -7.0656667875       -1.4720714922        0.6040735532
 H         -8.3640502916       -3.2743245237        1.6990458103
 H         -7.1995193833       -4.9874724071        3.0365356672
 H         -4.7478972840       -4.9034308176        3.2846301080
 H         -3.4577442019       -3.0997735098        2.1847146911
 H         -0.9108985297       -1.6723561596        1.7481833771
 H          1.5535801711       -1.6090521360        1.9598729828
 H          2.5144521944        0.3502216046        3.3934174273
 H          4.2830537755        0.6056885232        5.1052250366
 H          6.6499544167        0.5825710296        4.4865885504
 H          7.3490482599        0.3212983564        2.1285535643
 H          8.2117129432        0.0156065772       -0.3859543492
 H          9.0554547382       -0.3132586634       -2.6863658644
 H          7.5236114480       -0.6229556379       -4.5644236019
 H          5.0657153532       -0.6172288556       -4.2253102314
