  63
       -106.07697107
 N          2.0699809259        3.5965220899       -0.7932189694
 C          1.6107856423        2.6012751595       -0.4486588957
 C          1.0174462573        1.3781809845       -0.0743316357
 C         -0.3587619829        1.2646001724       -0.1335642856
 C         -0.9931853614        0.0356461518        0.1188878249
 C         -2.4039301477       -0.0710579432        0.0645198932
 N         -3.1606914512        1.0121042754       -0.2352078787
 C         -4.4605119134        0.8885478641       -0.2745138158
 C         -5.2768149033        2.0535086492       -0.5922624195
 C         -4.6751506301        3.2837164301       -0.8605889888
 C         -5.4532466194        4.3820447735       -1.1648249302
 C         -6.8352645799        4.2684133070       -1.2048439277
 C         -7.4384334283        3.0488658871       -0.9381484316
 C         -6.6670575188        1.9451728012       -0.6332052425
 N         -5.0870722368       -0.2802634552       -0.0390093668
 C         -4.3084253053       -1.3397409171        0.2458765799
 C         -4.9560269071       -2.6219051071        0.4959682802
 C         -4.1911892295       -3.7518233558        0.7868817654
 C         -4.8095075627       -4.9629735397        1.0221214367
 C         -6.1918678715       -5.0621247481        0.9709137245
 C         -6.9565544106       -3.9426758193        0.6818367475
 C         -6.3455520505       -2.7273142729        0.4446125230
 N         -3.0062145603       -1.2600694227        0.3109316726
 C         -0.1823858920       -1.0941586197        0.4013598245
 C          1.1795364835       -0.9817285340        0.4685198973
 C          1.8067957083        0.2523728116        0.2655823658
 N          3.2008589438        0.3479297634        0.3542771269
 C          3.9489191979        1.3228358578        0.9990163072
 C          3.5549594454        2.3867389151        1.7948203664
 C          4.5466924994        3.1894190770        2.3285108117
 C          5.8953768756        2.9395702778        2.0923067614
 C          6.3062901216        1.8582123559        1.3305346193
 C          5.3237600269        1.0484030809        0.7949048739
 N          5.3712777364       -0.1046166323        0.0468479254
 C          6.1973681366       -1.0293456984       -0.5551650612
 C          7.5652667460       -1.1585322754       -0.6622767088
 C          8.0428762924       -2.2551093449       -1.3647358085
 C          7.1799132951       -3.1872101091       -1.9381185903
 C          5.8082484078       -3.0668152594       -1.8365542910
 C          5.3010050523       -1.9757949389       -1.1381022735
 N          3.9949405656       -1.6339646690       -0.8969113249
 C          4.0791602106       -0.5273985834       -0.2015579930
 H         -0.9617426963        2.1197470567       -0.3973447817
 H         -3.5990271981        3.3568547861       -0.8269709357
 H         -4.9840947214        5.3324569938       -1.3729903515
 H         -7.4409269385        5.1299697141       -1.4442775330
 H         -8.5146188637        2.9616579563       -0.9698402236
 H         -7.1206622587        0.9888163194       -0.4240125020
 H         -3.1171087732       -3.6584995264        0.8229490662
 H         -4.2147797486       -5.8361916916        1.2463719352
 H         -6.6721845826       -6.0117199543        1.1555144483
 H         -8.0330644751       -4.0206578216        0.6420394081
 H         -6.9259892065       -1.8468167347        0.2174722994
 H         -0.6693679214       -2.0415401519        0.5656222079
 H          1.7975665990       -1.8402501136        0.6808750534
 H          2.5146049942        2.5801602260        1.9977290979
 H          4.2661685419        4.0280917789        2.9460791876
 H          6.6373737553        3.5940067211        2.5223854004
 H          7.3513486530        1.6508771480        1.1661059087
 H          8.2380638146       -0.4393554187       -0.2216000826
 H          9.1088804013       -2.3882224115       -1.4692237569
 H          7.5992043122       -4.0241929541       -2.4758542851
 H          5.1381049464       -3.7849928423       -2.2795512980
