  85
       -132.95166154
 C          6.0388381209        3.9245825894        0.3618807579
 C          6.7362229781        3.3608200544       -0.6940644036
 C          6.7723197145        1.9877701435       -0.8530452394
 C          6.1047851631        1.1677119638        0.0526761767
 N          6.1669376855       -0.2241969448       -0.0856816252
 C          5.1216913468       -1.1569096655        0.0074026335
 C          3.7525871041       -0.8983940276       -0.0657261921
 C          2.8483097577       -1.9727446706        0.2231584309
 C          1.5054127066       -1.7941445578        0.2076905724
 C          0.9173117472       -0.5316822104       -0.1023728261
 C         -0.4964890389       -0.3285016834       -0.0801737738
 C         -1.0511829425        0.9650048547        0.0474561261
 C         -2.4168089421        1.1613517727        0.0713144535
 N         -2.9311448357        2.4616039996        0.1855362995
 C         -2.5557691450        3.5402760780       -0.5872372833
 C         -1.6606814414        3.5994837160       -1.6466863369
 C         -1.4843207060        4.8176654699       -2.2745468319
 C         -2.1842509422        5.9522464851       -1.8700050231
 C         -3.0943082135        5.8941808353       -0.8320383859
 C         -3.2879798011        4.6817544690       -0.1850444658
 C         -4.1405457424        4.2589681526        0.8919137256
 C         -5.0610861351        4.9158859623        1.6960396269
 C         -5.7086413408        4.1977019287        2.6831037284
 C         -5.4366562818        2.8460816771        2.8820117530
 C         -4.5235725301        2.1703647246        2.0949951956
 C         -3.8876235554        2.8804337086        1.0856815741
 C         -3.2978584588        0.0803139298       -0.0156075168
 C         -2.7669728119       -1.2068349900       -0.1377985181
 N         -3.6360113064       -2.3045018943       -0.2212787563
 C         -4.7202896292       -2.4194498814       -1.0651089557
 C         -5.1826791037       -1.5424739537       -2.0370106152
 C         -6.2946087285       -1.9168311404       -2.7673768608
 C         -6.9301162420       -3.1372302819       -2.5508320046
 C         -6.4594749202       -4.0257762746       -1.6027748424
 C         -5.3457862382       -3.6711377183       -0.8551279961
 C         -4.5919371572       -4.3356672068        0.1724736160
 C         -4.7195435928       -5.5616346072        0.8098230119
 C         -3.8109232224       -5.8915631958        1.7973291678
 C         -2.7959057091       -5.0097345979        2.1614845483
 C         -2.6490429811       -3.7834302389        1.5417413018
 C         -3.5436655061       -3.4566121847        0.5316647887
 C         -1.4023371388       -1.4085447232       -0.1769609613
 C          1.8188248886        0.5154563112       -0.4540985574
 C          3.1655729128        0.3481781046       -0.4488815334
 N          5.6099082274       -2.4181939596        0.0912979557
 C          6.9357693517       -2.3226930474        0.0003598071
 C          7.9164206762       -3.3293561069        0.0212083724
 C          9.2341511244       -2.9436046738       -0.0421884218
 C          9.6050693305       -1.5956425073       -0.1189343411
 C          8.6599354216       -0.5779826616       -0.1499047861
 C          7.3318679056       -0.9485634656       -0.1088553605
 C          5.4091565200        1.7354515461        1.1197675576
 C          5.3751219940        3.1083247032        1.2648191789
 H          6.0118135970        4.9969010131        0.4811206189
 H          7.2508092701        3.9933504684       -1.4019580788
 H          7.2985974751        1.5437878970       -1.6849694441
 H          3.2866992287       -2.9234104005        0.4796046681
 H          0.8662766707       -2.6205609309        0.4770130988
 H         -0.4050293412        1.8171289394        0.1799935964
 H         -1.1281315618        2.7208546456       -1.9781102287
 H         -0.7904252075        4.8906903979       -3.0988046009
 H         -2.0163789715        6.8865789453       -2.3841712394
 H         -3.6482655207        6.7700584283       -0.5301799521
 H         -5.2609138645        5.9668680951        1.5528212886
 H         -6.4296056520        4.6896496348        3.3185205920
 H         -5.9464983322        2.3152836677        3.6721427407
 H         -4.3037768828        1.1282434243        2.2704108937
 H         -4.3636065006        0.2359582674        0.0116116939
 H         -4.6844604865       -0.6041743725       -2.2278941629
 H         -6.6756482412       -1.2499559843       -3.5264132915
 H         -7.7967139801       -3.3929717454       -3.1416596631
 H         -6.9421955530       -4.9786223265       -1.4471597589
 H         -5.5156473451       -6.2385783827        0.5395391507
 H         -3.8903903285       -6.8420203921        2.3030293198
 H         -2.1100949314       -5.2887657948        2.9475115483
 H         -1.8703593963       -3.0989671406        1.8423418175
 H         -1.0330994478       -2.4083842744       -0.3338480337
 H          1.4177472941        1.4609205275       -0.7868063475
 H          3.8001447647        1.1527315791       -0.7841652490
 H          7.6230610309       -4.3640092457        0.0876139190
 H         10.0104692167       -3.6942547167       -0.0273831278
 H         10.6532809206       -1.3398045958       -0.1526583276
 H          8.9589740375        0.4583551538       -0.1941200577
 H          4.8993903829        1.0919848470        1.8212455091
 H          4.8341132915        3.5437008847        2.0915971069
