76
 energy: -115.333862532329 gnorm: 0.000133070473 xtb: 6.7.1 (edcfbbe)
C            0.91347959340762       -5.56332818388528       -1.89944760331146
C            0.14627211277550       -5.77609939016115       -0.76548818269785
C           -0.52881233376682       -4.72810551787407       -0.16976262283292
C           -0.45196106560104       -3.44380835668733       -0.70898300043620
N           -1.13057821743664       -2.37897486983176       -0.10486321975094
C           -2.40666894611258       -2.58166538577564        0.43212002137252
C           -2.78869335773515       -1.95092329267251        1.61641123462931
C           -4.05346636783043       -2.14888502493061        2.13521539266366
C           -4.95458900949444       -2.98196267120683        1.49196579287126
C           -4.57830391451269       -3.61777192508108        0.31979641944756
C           -3.31862636491499       -3.41878138278511       -0.21143075488296
C           -0.53246116472164       -1.11414694945581       -0.04387488527124
C            0.84225004318530       -1.01024245305422        0.13748272979667
C            1.44521651206296        0.24362546278564        0.18530032029477
C            0.67233005717435        1.41863064121614        0.06379362245121
C           -0.72228287335126        1.28690946985437       -0.11033086192868
C           -1.31496547069114        0.02844154034001       -0.16819179980520
N           -1.50034190214735        2.42054334263281       -0.22641997319899
C           -2.91720224798669        2.23954053668384       -0.25558794313948
C           -3.57872991205255        2.05646237374327       -1.46406767921421
C           -4.94845482341051        1.86030439703076       -1.47577759972919
C           -5.65957383454353        1.84577647578131       -0.28668912710069
C           -5.00010960239363        2.03125790721488        0.91689457599774
C           -3.62993463717036        2.22724079562068        0.93581279078375
C           -0.99288724139644        3.69962262691255       -0.36890444043543
C           -1.88308735245070        4.75353278798789       -0.62292006983640
C           -1.41969824346716        6.02811439899814       -0.85399146251158
C           -0.05354259863935        6.28184754784879       -0.85611020190662
C            0.82151876221882        5.25822269973262       -0.56758431534037
C            0.39495088787389        3.95657100430247       -0.27548201836686
B            1.32297667043476        2.78479319594694        0.11606666890809
C            2.80535876363120        2.77720483787693        0.55151532012972
C            3.53736783441890        3.90860168923533        0.93316460524155
C            4.87458076642149        3.85583797104486        1.25835390554999
C            5.53883785028514        2.63655568866095        1.20492580917919
C            4.84879528538915        1.48985503254230        0.88622102603735
C            3.47812551421321        1.53362149390713        0.59131289327703
N            2.81089800469943        0.34512888192142        0.35445994045186
C            3.56161439058562       -0.87036704389391        0.34017656586436
C            3.79384447195355       -1.56640503343795        1.52047136292716
C            4.50048017686249       -2.75578073035972        1.49030347579970
C            4.97498391725155       -3.25277796374976        0.28706770782246
C            4.74603397731599       -2.55692566372704       -0.88819120744870
C            4.04002052218926       -1.36646935971884       -0.86508214449146
C            0.31413716595422       -3.23784339470354       -1.85657928485769
C            0.99244611010719       -4.29003255782253       -2.44021461102477
H            1.44376252108432       -6.38373417693325       -2.35939461702559
H            0.07982201972327       -6.76471792973554       -0.33452654977161
H           -1.11851224480233       -4.89510597752945        0.72013166457360
H           -2.08504112959664       -1.30835940833920        2.12490527263555
H           -4.33495462090563       -1.65398141432392        3.05349528951015
H           -5.94152140773330       -3.13625200627482        1.90171989321043
H           -5.27442669282839       -4.26716219417025       -0.19133524972570
H           -3.03107496468130       -3.90870650051755       -1.13060839659613
H            1.42376428555333       -1.91169638914532        0.24596807550866
H           -2.37696082460343       -0.07983245212306       -0.32036787536824
H           -3.01377152011085        2.06775898092733       -2.38485815481056
H           -5.46077809537795        1.71678974760486       -2.41564846684846
H           -6.72805243738097        1.69044059761296       -0.29882308578874
H           -5.55245373544540        2.02078588861371        1.84472649387810
H           -3.10454625120754        2.36970190847858        1.86880413003130
H           -2.94613792239397        4.56624964345238       -0.65315041573459
H           -2.12240413573725        6.82535714916820       -1.05203542665407
H            0.31474374901721        7.27359339377499       -1.07700507675137
H            1.88145252846891        5.45976744365569       -0.58747562690362
H            3.02432281667539        4.85591455801826        0.99517114719403
H            5.40541457595390        4.75171994651110        1.54750276499468
H            6.59425996087145        2.58023439786243        1.43179954115825
H            5.37211957637294        0.54532534501147        0.87813533595861
H            3.41606613948318       -1.17057773715748        2.45203325785124
H            4.67869138344006       -3.29622668725460        2.40824067635453
H            5.52412926158946       -4.18221299360112        0.26610006945553
H            5.11602133334200       -2.94205467390913       -1.82671369974160
H            3.85267039289078       -0.81706857162066       -1.77600625309337
H            0.37036979437201       -2.24768697792460       -2.28470329860031
H            1.58147273536708       -4.11520655911908       -3.32894159087604
