  76
       -115.28941183
 C         -4.6104246354       -3.6408483373        1.4382885524
 C         -3.4715176661       -3.1529400803        2.0579734387
 C         -2.8605050270       -2.0046071559        1.5955874226
 C         -3.3750754601       -1.3290624341        0.4884125395
 N         -2.7454610539       -0.1807445349       -0.0020785510
 C         -3.5110006872        0.8817625768       -0.4936210219
 C         -3.0842902649        1.6120081027       -1.6034094378
 C         -3.8293639366        2.6785564218       -2.0649877049
 C         -5.0159398566        3.0284989607       -1.4415177287
 C         -5.4528711487        2.2980100955       -0.3488072414
 C         -4.7086746813        1.2360587569        0.1270535767
 C         -1.3496789654       -0.0914429164        0.0016952992
 C         -0.7380236922        1.1436585217        0.1830889890
 C          0.6493047159        1.2447860181        0.1411002008
 C          1.4516466398        0.0929091788        0.0065780738
 C          0.8074764080       -1.1542424435       -0.1297004228
 C         -0.5812130729       -1.2361032935       -0.1762763457
 N          1.5656366490       -2.3017925534       -0.2312954284
 C          0.8585299939       -3.5382976163       -0.1770172199
 C          0.5573390135       -4.2348399410       -1.3410039803
 C         -0.1637487777       -5.4133608318       -1.2704934049
 C         -0.5913025338       -5.8957334967       -0.0444184401
 C         -0.2916439994       -5.2012919208        1.1153938352
 C          0.4335835732       -4.0250077722        1.0523980184
 C          2.9382583882       -2.3118986642       -0.4010300086
 C          3.5842036618       -3.5392093729       -0.6070173100
 C          4.9336554688       -3.5897183678       -0.8685778657
 C          5.6717239070       -2.4153331603       -0.9459988635
 C          5.0514731150       -1.2126647691       -0.6921379509
 C          3.6920089580       -1.1150645032       -0.3712345227
 B          2.9617653656        0.1932824221        0.0052229001
 C          3.5140036448        1.5872088227        0.3779505678
 C          4.8501788867        1.8648050896        0.6915760368
 C          5.3067889328        3.1395505764        0.9405976267
 C          4.4188926738        4.2055509243        0.8678089153
 C          3.0866809359        3.9760723990        0.6140761938
 C          2.6087057172        2.6738157388        0.4100932194
 N          1.2491638339        2.4821656252        0.2447809308
 C          0.3849158221        3.6140455594        0.1817793817
 C         -0.0912571668        4.0366837078       -1.0525562809
 C         -0.9674843068        5.1045610714       -1.1252242384
 C         -1.3677174514        5.7545154210        0.0299720472
 C         -0.8892716282        5.3367353038        1.2609283408
 C         -0.0165698989        4.2662510475        1.3410907686
 C         -4.5239298122       -1.8231866557       -0.1291263255
 C         -5.1347901021       -2.9665551506        0.3479368024
 H         -5.0869364307       -4.5378484208        1.8034078178
 H         -3.0604332909       -3.6653913220        2.9152762027
 H         -1.9792987353       -1.6204668095        2.0872821085
 H         -2.1648117644        1.3350546592       -2.0971460162
 H         -3.4854548998        3.2351241950       -2.9244116309
 H         -5.5964787749        3.8624635421       -1.8053706306
 H         -6.3760230676        2.5637481149        0.1450406705
 H         -5.0454226804        0.6762281593        0.9873840190
 H         -1.3532492756        2.0123902170        0.3526899100
 H         -1.0765171300       -2.1780639125       -0.3478930766
 H          0.8896500404       -3.8450674902       -2.2920141867
 H         -0.3977295054       -5.9527853643       -2.1761047447
 H         -1.1590603265       -6.8124195638        0.0063109610
 H         -0.6227389816       -5.5767168787        2.0719149908
 H          0.6708859560       -3.4723955420        1.9494032023
 H          3.0196815156       -4.4587839297       -0.5714185449
 H          5.4113691297       -4.5452498647       -1.0305630810
 H          6.7228456557       -2.4499350544       -1.1924105723
 H          5.6286139547       -0.3042196018       -0.7632895293
 H          5.5430439533        1.0410160537        0.7604477504
 H          6.3455379797        3.3138150611        1.1801869487
 H          4.7665315083        5.2160904873        1.0272396836
 H          2.4043934492        4.8121913152        0.5824288613
 H          0.2253247806        3.5184406444       -1.9456021520
 H         -1.3381397594        5.4296268675       -2.0856662092
 H         -2.0533787668        6.5861993526       -0.0282607840
 H         -1.2008218513        5.8422121362        2.1628175327
 H          0.3576971054        3.9272807150        2.2960258167
 H         -4.9283441836       -1.3064834641       -0.9872548557
 H         -6.0219352478       -3.3393144036       -0.1427397581
