68
 energy: -110.473817199234 gnorm: 0.000070208374 xtb: 6.7.1 (edcfbbe)
N           -1.67888264202670        6.60160422014236       -1.57791157083453
C           -1.58547263466370        5.49061302023337       -1.28868054105772
C           -1.45813839945513        4.13241032212360       -0.95872355658200
C           -0.65922826562251        3.31390634009438       -1.74773628785683
C           -0.52582870191091        1.96614328661106       -1.44888318027030
C           -1.19039272605404        1.41351481913915       -0.36726310113246
N           -1.03000701914580        0.04471632021294       -0.09680326175477
C            0.19859321942844       -0.59208776854041        0.12325257496155
C            1.43125247728310        0.07855507749225        0.32254994933204
C            1.45699583371416        1.38037359967593        0.87765241226493
C            2.61913006252616        2.04007088452970        1.12778752985486
C            3.88150767793766        1.45894920494137        0.81106280676685
C            5.08177291789757        2.13996757870774        1.03736639912015
C            6.29633589029831        1.55729792532412        0.74502274782088
C            6.35880559757920        0.26053155352257        0.20273410621818
C            7.58992794830787       -0.35715388491328       -0.11102475275661
C            7.62835985538017       -1.63239917657009       -0.64614468509791
C            6.46183321571216       -2.32720510473654       -0.88989785526389
C            5.20301953366087       -1.75151994731441       -0.59212675325732
C            3.99584440903373       -2.42565719467714       -0.83121716983310
C            2.78054554735937       -1.84306912961331       -0.53402852692011
C            2.69732214594414       -0.56546108856663        0.03266875471307
C            3.90273281457372        0.14621989352469        0.27108895300500
C            5.15131419443155       -0.44722407555298       -0.03773503012308
N            0.03283673873344       -1.91218240468642        0.21516806750916
C           -1.27761566578515       -2.14627432573102        0.08710296079560
C           -1.95028632196646       -3.39752499263837        0.19287818320298
C           -1.24854627270747       -4.57013324550886        0.49120342729958
C           -1.91836458435605       -5.76238119651510        0.63389477675302
C           -3.30231172663501       -5.78819198774178        0.48709121908988
C           -4.00208278822894       -4.63891982467408        0.18681193568748
C           -3.35312009738012       -3.40811719558065        0.01876060702122
C           -4.05592321018303       -2.18538208147073       -0.34257476704211
C           -5.42538785264202       -2.18821352524613       -0.62861703330863
C           -6.09564611434621       -1.04818677525839       -1.01594349470189
C           -5.40587863999695        0.15166266217127       -1.15921919935008
C           -4.06234339540994        0.20047238974936       -0.88158463191611
C           -3.36531251977071       -0.94127061901192       -0.44816291242168
C           -1.97971780271218       -0.94317236558531       -0.14647889648639
C           -1.99800283739134        2.22342863376188        0.48441066462746
C           -2.63587534719223        1.71416866350664        1.63234479661896
C           -3.40022796117739        2.52709223044879        2.42940115111786
C           -3.55947797314819        3.87938355233999        2.11222993105139
C           -2.93593078325038        4.40858404113109        1.01059490499777
C           -2.13797849331370        3.60282531303214        0.17857801879791
H           -0.14974242376578        3.72998115092859       -2.60394608810723
H            0.09267739998623        1.33469427097198       -2.06957419684098
H            0.52742300958084        1.83968653114757        1.17523993612187
H            2.60058725611679        3.01602233161197        1.59011991164180
H            5.04440661919695        3.13866180997569        1.44850291590343
H            7.21561504422408        2.09345800860072        0.92986584594407
H            8.50552543117802        0.18484417889115        0.07373436680502
H            8.58148255692534       -2.08570527733956       -0.87771462680130
H            6.49197044711738       -3.32064852556707       -1.31196427453657
H            4.02411133683724       -3.41746192616996       -1.25845439388803
H            1.86878632212281       -2.38306421868828       -0.72959164897119
H           -0.17837746600950       -4.50295426057948        0.61366621052201
H           -1.37993393781499       -6.66910590503351        0.86530011267594
H           -3.83670995075078       -6.71898737554420        0.60971593082079
H           -5.07321247764955       -4.70852608531695        0.08800716925942
H           -5.98556543673429       -3.10615126746095       -0.55933195837000
H           -7.15406354170727       -1.09130623775161       -1.22511957983327
H           -5.92041079144593        1.04077564439997       -1.49170248084375
H           -3.52955746285159        1.12584582359022       -1.02195069774171
H           -2.51356400243899        0.67138481238554        1.88641597949694
H           -3.88112455199776        2.12232789448812        3.30719238195653
H           -4.16996889504534        4.50901262222965        2.74188979161300
H           -3.04487953392401        5.45547080335613        0.76510730296149
