68
 energy: -110.541292028373 gnorm: 0.000037163505 xtb: 6.7.1 (edcfbbe)
N            0.57011552477375        6.89632852637458       -0.90995730738464
C            0.26132384982835        5.79787320783124       -0.77893827119503
C           -0.14128990689948        4.45274611195401       -0.64074393658656
C           -1.13418901421976        3.96287835307562       -1.46686886469549
C           -1.52958659469886        2.62986967969499       -1.37269556671147
C           -0.95310956709014        1.79237699795327       -0.44140501453714
N           -1.30405029967121        0.43171333682313       -0.42228908734792
C           -0.43373815503019       -0.60155253746346       -0.72002726813940
C            0.97413486897978       -0.37229283561178       -1.02353214601190
C            1.32018931414254        0.60868620235722       -1.95095279821520
C            2.63806261384271        0.88942370947731       -2.23941070840380
C            3.67002259447423        0.19535485248402       -1.60535114147575
C            5.04221797396790        0.47206950893926       -1.87384724717558
C            6.03035172764661       -0.22081421711384       -1.26169921389414
C            5.73480666309938       -1.25328017695279       -0.32327410685301
C            6.73891379955903       -1.98148368206544        0.31798991737464
C            6.42161752850294       -2.97626906600979        1.22530289216268
C            5.10108432921535       -3.26792856426215        1.51499265221048
C            4.06430461107487       -2.56584897317430        0.89683914727178
C            2.69226974128799       -2.83795967711350        1.16936032317039
C            1.70088736715561       -2.14761843667481        0.55876546620247
C            1.98451455201495       -1.11957755151716       -0.38779637684044
C            3.34100997013892       -0.82330364572454       -0.67651699292521
C            4.37785248711919       -1.54606577617641       -0.03513193939519
N           -1.03441141669344       -1.76175514643252       -0.71652096843573
C           -2.33918824932534       -1.51330916656822       -0.41360260015954
C           -3.40672354358658       -2.44962304405164       -0.32348159966148
C           -3.20088078250805       -3.81264579053833       -0.56500215152274
C           -4.25188080887161       -4.69377219583447       -0.50695398035655
C           -5.52752554679872       -4.21827268302335       -0.20751492351954
C           -5.74038024030327       -2.88149565569488        0.03727984614874
C           -4.69103264358672       -1.94988929805783       -0.00528806185517
C           -4.87781285194378       -0.53752579904348        0.28132149575802
C           -6.12319636447791       -0.02321972924913        0.67151605027648
C           -6.29835180891725        1.30316574899198        0.98896681565484
C           -5.21822771960120        2.17993048183834        0.94998888510367
C           -3.98372719040582        1.71873329094215        0.56413131662688
C           -3.79153067452423        0.37739380198406        0.20244542763331
C           -2.53676399499634       -0.14987900371369       -0.21427910711449
C            0.04053331977079        2.27119856310437        0.45470032929496
C            0.60991741189727        1.46087221817851        1.45947498250261
C            1.59048987333384        1.94934968346298        2.27715727808082
C            2.03984013958162        3.27048034809706        2.13619825755599
C            1.48322986540978        4.09279665450761        1.19543816570697
C            0.46898818495048        3.61979864825282        0.33894378422833
H           -1.59228134533500        4.60796523434711       -2.20164433418268
H           -2.28783197668741        2.24543352052787       -2.03929660158997
H            0.54030600059296        1.14506927645094       -2.47193125999168
H            2.87903048709383        1.65262545984583       -2.96526772288713
H            5.27214421061014        1.25336665188268       -2.58441838549411
H            7.06836690698771       -0.00575663441597       -1.47275095886218
H            7.77309776221580       -1.75876493934833        0.09728645246765
H            7.21207388967305       -3.52966776701048        1.71164519977085
H            4.85979237687213       -4.04611951435912        2.22492757878162
H            2.45835925205843       -3.61730742064886        1.88087421857890
H            0.66685140700354       -2.37904904712973        0.76338075091083
H           -2.19971936425211       -4.13886371255447       -0.80292059186569
H           -4.09671184652521       -5.74588544780419       -0.69538076906012
H           -6.35900018363518       -4.90708014546770       -0.16651664868163
H           -6.74463968740315       -2.55993443944564        0.26247136700900
H           -6.97635181699198       -0.67851431732115        0.73756252001131
H           -7.27337748562059        1.66208820689273        1.28393504006433
H           -5.34753883308983        3.21603820479659        1.22596579767806
H           -3.14385103319698        2.39545459781856        0.55478152825738
H            0.25897303385338        0.44755943789273        1.58334845849902
H            2.02217406821887        1.31717492874257        3.03815335981677
H            2.82069076033347        3.63890559329510        2.78395373746161
H            1.81036047958964        5.11760199875077        1.09410861076938
