68
 energy: -110.473013072750 gnorm: 0.000128672570 xtb: 6.7.1 (edcfbbe)
N            0.26723424704744        7.09931460851017       -0.55818633205971
C            0.02619616695077        5.97770291032764       -0.45573663798333
C           -0.28774533947458        4.61321621461442       -0.35848562442814
C           -1.18382411861249        4.05943713855704       -1.26488153776242
C           -1.49293291648597        2.70900265291729       -1.20555946205979
C           -0.91915072182202        1.89246859605522       -0.24254947576577
N           -1.22036773581358        0.52059527498074       -0.24890207994320
C           -0.30942668162694       -0.53293113795002       -0.42211317067690
C            1.07608684489648       -0.38151148513206       -0.68155637862059
C            1.56355440267194        0.77768118247358       -1.32997444798412
C            2.88280921812735        0.96085648627567       -1.60126803808299
C            3.85632402680200       -0.00690925590066       -1.21786446574746
C            5.21924326191908        0.18587633393240       -1.46271027564175
C            6.14751851934066       -0.77119257161853       -1.11162605888558
C            5.74514155992465       -1.96641573669790       -0.48871530232899
C            6.67654198592287       -2.96194121069445       -0.11671415184554
C            6.26074649891870       -4.12894149354694        0.49897391353546
C            4.92454459975108       -4.34374720359013        0.76616932065508
C            3.95254658816536       -3.37711771380580        0.41074417835293
C            2.58607122408149       -3.55935531127141        0.66963252768723
C            1.65713410386897       -2.60139130979765        0.31596457539796
C            2.03024180964626       -1.41718729216121       -0.33072667425541
C            3.40922246718569       -1.20071933080003       -0.59347491154705
C            4.36575636516534       -2.17910358062441       -0.22576140542859
N           -0.94192034320965       -1.70622916883632       -0.37433482381937
C           -2.24141544428903       -1.44238793641557       -0.20552142629122
C           -3.31934799806213       -2.37325146332032       -0.17900312718987
C           -3.09817247464965       -3.73921707184785       -0.38204963358152
C           -4.15562002500382       -4.61775810185123       -0.40414324901472
C           -5.44836243679678       -4.13217722866919       -0.22982877886191
C           -5.67584580574876       -2.78840735823497       -0.02196813645811
C           -4.62280737775010       -1.86463684064657        0.02073278413418
C           -4.82322536263338       -0.44624737490174        0.27985025817373
C           -6.08488039081214        0.06267027563927        0.60677976193380
C           -6.28463343720951        1.39354476374098        0.90209549670146
C           -5.20843208797170        2.27566661333269        0.90500970794250
C           -3.95474190287441        1.81970068797401        0.58096300541355
C           -3.73227764380962        0.47302537390354        0.24141732392633
C           -2.45628260351159       -0.05158734912861       -0.08932864506328
C           -0.02778419771921        2.42896602877704        0.73036846894239
C            0.51991689109004        1.65431170568152        1.77100868660434
C            1.38242366063194        2.20812430281213        2.68036980687964
C            1.73244130736652        3.55943024715874        2.59088440352242
C            1.19630496059081        4.34631978321663        1.60428477050485
C            0.30170349288193        3.80857841111298        0.66130850055101
H           -1.62647712805059        4.68186230697559       -2.02824334093904
H           -2.17464145728545        2.27918711248573       -1.92519637960123
H            0.85837039540651        1.51605109303688       -1.67688763980201
H            3.21134413723980        1.84327838101792       -2.13040071183056
H            5.53880822740245        1.10267475636082       -1.93717347973691
H            7.19677112147158       -0.61126525450649       -1.31223937574173
H            7.72390583373579       -2.79551711104794       -0.32062210500245
H            6.99036204529561       -4.87665860992321        0.77498664927740
H            4.59984364487898       -5.25214175589105        1.25131114863590
H            2.26014424182967       -4.46624386585987        1.15781505190399
H            0.61409173067708       -2.76800589387926        0.52880527378297
H           -2.08229505939258       -4.07146711443444       -0.53098136364099
H           -3.98860897220248       -5.67248328733900       -0.56316662620194
H           -6.28525332862148       -4.81464220225200       -0.25836896191942
H           -6.69513185071666       -2.45976066265075        0.10075371875325
H           -6.93526245446993       -0.59805212939636        0.64607805776084
H           -7.27440679635373        1.74783813853210        1.14832854858955
H           -5.35456435409089        3.31326190907717        1.16577252069093
H           -3.12200308370256        2.50267944580254        0.61025634913033
H            0.25119274333936        0.61129910577034        1.85216953230680
H            1.79433175547486        1.59959031864927        3.47141621726892
H            2.42053652539956        3.98325527436849        3.30672977666603
H            1.45088189027386        5.39456551166623        1.53569875284629
