  90
       -137.91327026
 C         -9.5347281516       -6.0245635747        0.8118010427
 C         -8.4047350370       -6.2642136276        0.0476898368
 C         -7.4412587725       -5.2840088513       -0.0961348623
 C         -7.5937278463       -4.0421469539        0.5181942172
 C         -6.5722265114       -2.9976764718        0.3658820569
 C         -5.2115025739       -3.3333237203        0.4082300479
 C         -4.2174755365       -2.3865647899        0.2724553068
 C         -4.5975835300       -1.0656920472        0.0725453249
 C         -5.9655138286       -0.7029303434        0.0524434760
 C         -6.9465930988       -1.6676347624        0.1962169309
 C         -6.0035857522        0.7261969075       -0.1104861104
 C         -7.0354163868        1.6428712717       -0.2067799931
 C         -6.7325426551        2.9918306278       -0.3690157907
 C         -7.8072200475        3.9899062266       -0.4510170112
 C         -7.6834939783        5.2206821216        0.1915187757
 C         -8.6966345686        6.1579318818        0.1205224116
 C         -9.8489736280        5.8854989385       -0.5978520102
 C         -9.9826410169        4.6667920802       -1.2422003964
 C         -8.9731490785        3.7257773939       -1.1676505113
 C         -5.3922101785        3.3936900872       -0.4611295361
 C         -4.3489382838        2.4953613675       -0.3759643704
 C         -4.6565170778        1.1558360548       -0.1744602103
 N         -3.8210644638        0.0649726083       -0.0653789941
 C         -2.4230957941        0.1005574095       -0.0702563421
 C         -1.6925198685       -0.7769718216       -0.8754705575
 C         -0.3189834912       -0.7448928243       -0.8692941108
 C          0.3921388139        0.1644652542       -0.0657266171
 C          1.8372280833        0.1938848549       -0.0564577745
 C          2.6008160995       -0.9619065469       -0.3163416504
 C          3.9656460030       -0.9369581135       -0.2841688040
 C          4.6799019180        0.2535077834       -0.0086763637
 C          6.1052861819        0.2222746463        0.0186420603
 C          6.9260141631        1.3421453476        0.2745718368
 C          8.2957132707        1.1659210680        0.2746798806
 C          9.2492316057        2.2401323046        0.5098280114
 C         10.5920296657        2.0405680909        0.1644304516
 C         11.5284976906        3.0314060252        0.3672554781
 C         11.1533216547        4.2448913960        0.9238728423
 C          9.8290996509        4.4522452771        1.2789577822
 C          8.8855845054        3.4654515604        1.0771600908
 N          8.8156111574       -0.0631888530        0.0251743116
 C          8.0194820531       -1.0923607262       -0.2145384775
 C          8.6166221427       -2.4014104042       -0.4755593531
 C          7.8094265087       -3.4967131826       -0.7737963297
 C          8.3773621560       -4.7318479807       -1.0166905898
 C          9.7540030527       -4.8866525552       -0.9644272404
 C         10.5625069019       -3.8009378167       -0.6671458949
 C          9.9989284656       -2.5635535919       -0.4234096512
 N          6.7172047780       -0.9680878375       -0.2186955725
 C          3.9144610868        1.4152087704        0.2335442301
 C          2.5470104512        1.3788206769        0.2195755051
 C         -0.3623241242        1.0416487716        0.7340574713
 C         -1.7356298648        1.0115994314        0.7357694065
 C         -8.7367878963       -3.8116489186        1.2814747011
 C         -9.6964940623       -4.7952831594        1.4284699056
 H        -10.2856793241       -6.7922677640        0.9257236629
 H         -8.2752224313       -7.2199424236       -0.4391675421
 H         -6.5713155731       -5.4715764661       -0.7084753777
 H         -4.9352353227       -4.3625772066        0.5815163715
 H         -3.1770146984       -2.6651203282        0.3383956297
 H         -7.9898975257       -1.3932389615        0.1607568198
 H         -8.0620439473        1.3170293126       -0.1358090761
 H         -6.7954405408        5.4324239146        0.7691640896
 H         -8.5887637668        7.1045628336        0.6299776199
 H        -10.6393064842        6.6192329457       -0.6546807191
 H        -10.8776856499        4.4502836283       -1.8072320895
 H         -9.0764636294        2.7848834165       -1.6884946799
 H         -5.1733436464        4.4373855301       -0.6304173705
 H         -3.3264400893        2.8253417216       -0.4772555064
 H         -2.2188940896       -1.4568224726       -1.5295656455
 H          0.2230174769       -1.4066101462       -1.5274196856
 H          2.0960225128       -1.8985141664       -0.5039190656
 H          4.5357733833       -1.8359602468       -0.4628967344
 H          6.4913114208        2.3119949863        0.4431244452
 H         10.8755450881        1.0953570177       -0.2726629613
 H         12.5591541769        2.8602375963        0.0911954177
 H         11.8866155092        5.0211832081        1.0843147470
 H          9.5320433171        5.3922165622        1.7218333944
 H          7.8655323521        3.6444717701        1.3814717184
 H          6.7396274438       -3.3595359310       -0.8108180126
 H          7.7481412114       -5.5790663863       -1.2475774792
 H         10.1962726663       -5.8537126061       -1.1545186724
 H         11.6350423672       -3.9230552528       -0.6249310518
 H         10.6135730119       -1.7088288543       -0.1850469188
 H          4.4060005334        2.3555038877        0.4316008840
 H          1.9986197001        2.2947192593        0.3862049899
 H          0.1465650446        1.7271820062        1.3941623629
 H         -2.2943730531        1.6676884002        1.3872508432
 H         -8.8606909647       -2.8620274655        1.7815914393
 H        -10.5736227047       -4.6034188282        2.0292758599
