  34
  -52.4068578500000        1.00000000000000      !
 C          3.8442054199       -2.2227512626        0.2316759163
 C          2.5476470585       -2.5914085564        0.6054712279
 C          1.5206679756       -1.6863043329        0.5372142424
 C          1.7374907136       -0.3718998528        0.0857167528
 C          3.0765294509        0.0351269083       -0.1712376457
 C          4.1029525596       -0.9273914401       -0.1265660221
 C          3.3866781320        1.4003481542       -0.4008737204
 C          2.4310473371        2.3682896948       -0.3155353543
 C          1.1044861168        1.9654719757       -0.1127320816
 N         -0.0014272120        2.7588487929        0.0022718281
 C         -1.1065491728        1.9645003316        0.1181403346
 C         -2.4342363306        2.3666181659        0.3136881190
 C         -3.3902082999        1.3985010244        0.3919203612
 C         -3.0780197043        0.0333195295        0.1652265902
 C         -4.1041212561       -0.9290049964        0.1125125382
 C         -3.8422248728       -2.2250555935       -0.2406462980
 C         -2.5420763393       -2.5949792057       -0.6001649690
 C         -1.5156938746       -1.6900015008       -0.5241292459
 C         -1.7367034450       -0.3740541143       -0.0791814198
 C         -0.7171247920        0.6135571439        0.0356417179
 C          0.7165154175        0.6143713668       -0.0266387489
 H          4.6403966148       -2.9519280024        0.2644029192
 H          2.3600370343       -3.5938878657        0.9615490283
 H          0.5395629224       -1.9652583838        0.8854787141
 H          5.1118254932       -0.6160752378       -0.3584873498
 H          4.4159307496        1.6645551269       -0.5950503067
 H          2.6733725367        3.4162676347       -0.4136115976
 H         -0.0018114132        3.7651410217        0.0016095084
 H         -2.6774738926        3.4144777038        0.4105510866
 H         -4.4210207909        1.6625372363        0.5775782717
 H         -5.1154176432       -0.6167896947        0.3329157996
 H         -4.6382717513       -2.9539194822       -0.2801204785
 H         -2.3510853349       -3.5986893828       -0.9516309093
 H         -0.5312507345       -1.9707244403       -0.8608241064
