  44
        -74.34236153
 O          3.7341534969        2.3310612240       -1.4803901656
 C          3.3836244075        1.3385086068       -0.8313063568
 C          4.3320173913        0.4372201758       -0.1889215577
 C          5.7004805556        0.7189264972       -0.3185135799
 C          6.6392674887       -0.1037493521        0.2526025321
 C          6.2382303037       -1.2317481620        0.9722102204
 C          4.9043463791       -1.5236394524        1.1105427836
 C          3.9284564449       -0.6918950126        0.5388220325
 C          2.5308351066       -1.0490174399        0.7357734078
 O          2.1729406227       -2.0453879318        1.3732825654
 C          1.5819661737       -0.1356606396        0.1106807147
 C          0.2172020541       -0.4087881777        0.2516970970
 C         -0.7286776341        0.4219873068       -0.3144285063
 N         -2.0886846117        0.1398594480       -0.1551252946
 C         -3.0433442019        1.0335890241        0.2818393216
 C         -2.8960023178        2.3539120441        0.6869597653
 C         -4.0304791923        3.0323095437        1.0931531977
 C         -5.2781415516        2.4150958856        1.1095883103
 C         -5.4259161740        1.0908398056        0.7322438268
 C         -4.3035513927        0.3907686997        0.3208335814
 C         -4.0817001253       -0.9647543260       -0.1121128143
 C         -4.9156812973       -2.0563286173       -0.2931686111
 C         -4.3641320188       -3.2404549733       -0.7520931733
 C         -3.0056767673       -3.3356638443       -1.0410885863
 C         -2.1541649698       -2.2597106886       -0.8692191558
 C         -2.6985566286       -1.0762076058       -0.3885236160
 C         -0.3209910297        1.5622563007       -1.0354638955
 C          1.0106689353        1.8415584821       -1.1691820813
 C          1.9894514413        0.9923190497       -0.6237366057
 H          5.9800683704        1.5956871038       -0.8837016621
 H          7.6897395660        0.1220534005        0.1438581914
 H          6.9788429782       -1.8758810737        1.4228943511
 H          4.5646472901       -2.3875574605        1.6625044384
 H         -0.0748778819       -1.2679762848        0.8372436805
 H         -1.9284188006        2.8314077642        0.7000971194
 H         -3.9448408111        4.0605543806        1.4102307832
 H         -6.1408003807        2.9775938637        1.4327626572
 H         -6.3921984846        0.6113136514        0.7608943713
 H         -5.9716716599       -1.9810118987       -0.0838364154
 H         -4.9965071524       -4.1033628557       -0.8963340745
 H         -2.6072656609       -4.2692881365       -1.4080004507
 H         -1.1047919010       -2.3387943102       -1.1064530239
 H         -1.0666327573        2.1875938422       -1.5023525090
 H          1.3581542189        2.7018504306       -1.7224903403
