  93
       -144.42027929
 N         -0.0503858146       -0.4882617380        1.1743903883
 C         -0.0030960999        0.0581507806        0.1667610552
 C          0.0336289197        0.8073207035       -1.0302054524
 C          1.2626815623        1.1922884751       -1.5953865404
 N          2.4617317741        0.7290282373       -1.0644882830
 C          2.7665709033       -0.5838757085       -0.7455627764
 C          2.0436762214       -1.7442806013       -0.9720872405
 C          2.5925303690       -2.9412148409       -0.5606495519
 C          3.8527207437       -3.0117792205        0.0463038364
 C          4.3815456728       -4.3082013439        0.4958725869
 C          5.7195340890       -4.6416758823        0.2979890216
 C          6.2135973721       -5.8579758906        0.7314689478
 C          5.3807536248       -6.7594515977        1.3732592814
 C          4.0490862386       -6.4376455161        1.5767089128
 C          3.5521563321       -5.2236901235        1.1401413199
 C          4.5974181959       -1.8517710590        0.2163187498
 C          4.0589957919       -0.6388742586       -0.1816092489
 C          4.5556591784        0.7105536419       -0.1604500800
 C          5.7410878076        1.2760241478        0.2803849155
 C          5.9196684828        2.6494601021        0.1712427396
 C          7.1748103042        3.2753190632        0.6139840982
 C          7.7932167318        2.8704504879        1.7946770226
 C          8.9726079731        3.4601752472        2.2098977580
 C          9.5568726679        4.4603119346        1.4507152965
 C          8.9527040404        4.8685247262        0.2733760318
 C          7.7708273109        4.2831916505       -0.1408091472
 C          4.8902900136        3.4400979821       -0.3549845630
 C          3.6984554843        2.8976680358       -0.7923604332
 C          3.5428696892        1.5219950448       -0.7166913016
 C          1.2681609989        2.0663288323       -2.6791555370
 C          0.0800650000        2.5565202592       -3.1900078828
 C         -1.1341451356        2.1627523711       -2.6555315690
 C         -1.1705432633        1.2770080316       -1.5845811307
 N         -2.3909629134        0.8668870785       -1.0521561029
 C         -3.4047362395        1.7018233469       -0.6203637011
 C         -3.4491106168        3.0862862190       -0.5648755498
 C         -4.5854055904        3.6763356253       -0.0486058902
 C         -5.6663914868        2.9213423600        0.4246910984
 C         -6.8503655894        3.5962603381        0.9777348525
 C         -7.4680077753        3.1104894025        2.1283088571
 C         -8.5784227552        3.7443581528        2.6535180064
 C         -9.0937320763        4.8720615719        2.0364876025
 C         -8.4896650367        5.3625806803        0.8910019328
 C         -7.3765248785        4.7320396930        0.3667208212
 C         -5.6055010748        1.5337471075        0.3834199868
 C         -4.4777656240        0.9207377480       -0.1377590112
 C         -4.0929989494       -0.4544775283       -0.3084168873
 C         -4.7349123049       -1.6574710045       -0.0625983375
 C         -4.0955400518       -2.8466619887       -0.3896059768
 C         -4.7586933336       -4.1369583200       -0.1480322200
 C         -5.4687051292       -4.3594251418        1.0296350562
 C         -6.0944996154       -5.5708891908        1.2570303022
 C         -6.0260827928       -6.5791845913        0.3101494705
 C         -5.3259898771       -6.3681611007       -0.8658930556
 C         -4.6959781147       -5.1588180280       -1.0928125622
 C         -2.8204777003       -2.8108184803       -0.9681056885
 C         -2.1622737950       -1.6239093393       -1.2157116586
 C         -2.7968957035       -0.4425878588       -0.8673332316
 H          1.0813335294       -1.7269149916       -1.4588085254
 H          2.0432050262       -3.8550751347       -0.7291569484
 H          6.3700779438       -3.9491692885       -0.2168330363
 H          7.2525375697       -6.1047186017        0.5667901000
 H          5.7679316744       -7.7084026518        1.7138029986
 H          3.3953731814       -7.1343829021        2.0812921335
 H          2.5176373981       -4.9686684949        1.3189425419
 H          5.5744103790       -1.8892547293        0.6730743911
 H          6.5221488526        0.6524219840        0.6874795205
 H          7.3327131956        2.1029475771        2.4000186379
 H          9.4369903895        3.1401068420        3.1313400902
 H         10.4788429802        4.9195279718        1.7750532516
 H          9.4058221179        5.6450579379       -0.3257178668
 H          7.3132645830        4.5939237294       -1.0691387726
 H          5.0250108552        4.5107461114       -0.3962223342
 H          2.9116601169        3.5353135465       -1.1667780341
 H          2.2110540129        2.3428334412       -3.1243152246
 H          0.0993705004        3.2340755018       -4.0298204326
 H         -2.0624865941        2.5200019888       -3.0734488269
 H         -2.6178782157        3.6893294522       -0.8994366064
 H         -4.6330217867        4.7530753130        0.0181493669
 H         -7.0589066389        2.2422531071        2.6245334598
 H         -9.0422665472        3.3591012245        3.5499616636
 H         -9.9617529109        5.3664157826        2.4468062859
 H         -8.8892589596        6.2396024299        0.4027113099
 H         -6.9204416012        5.1101698011       -0.5369614274
 H         -6.4323537679        0.9384392616        0.7392545636
 H         -5.7323626882       -1.6676965912        0.3494943027
 H         -5.5101907857       -3.5824363159        1.7792065093
 H         -6.6361016240       -5.7305702470        2.1781018960
 H         -6.5162211969       -7.5249211072        0.4875625962
 H         -5.2729944364       -7.1488296746       -1.6109108292
 H         -4.1668480427       -4.9945258067       -2.0204733554
 H         -2.3324162157       -3.7421534713       -1.2128149314
 H         -1.1862637746       -1.6258071565       -1.6758754350
