110
 energy: -170.286908061858 gnorm: 0.000066347286 xtb: 6.7.1 (edcfbbe)
C            2.81701210691998       -3.99903828851076       -0.01683690596716
C            1.94645125027962       -3.68990253503774       -1.04873560747799
C            1.25342560663472       -2.49322353327860       -1.03831371229249
C            1.42767047503133       -1.58644549729058        0.00227624827962
C            0.69329960994788       -0.30264697473729        0.01157366235483
C           -0.70340241184960       -0.29671926461305        0.00683669232276
C           -1.44832885413862       -1.57431431194822       -0.01311007735026
C           -2.32660744285034       -1.86289166586703       -1.05294349269693
C           -3.02300609664607       -3.05753295689315       -1.07075070622063
C           -2.85731130613158       -3.97523503414018       -0.04642475059389
C           -1.98591871672413       -3.69494241471320        0.99298826169304
C           -1.28320549201483       -2.50397706443799        1.00859960491656
C           -1.39851002585109        0.91697893885929        0.01789078241596
C           -2.87434735964443        0.91548047177544        0.00000402585381
C           -3.57306208746451        1.55488129283408       -1.01953455989863
C           -4.95232532461223        1.50423791498675       -1.06547626830711
C           -5.67095944575881        0.81355549639208       -0.09259231547968
C           -7.13549111261135        0.70699132024702       -0.17117607411378
C           -7.94474744842092        1.81005625183212       -0.41349729784459
C           -9.33086504657665        1.70479643288935       -0.48247448282339
C           -9.96590216641776        0.48818124387274       -0.32470836056068
C           -9.18741216039705       -0.64042907777209       -0.09752526652658
C           -7.77986585872904       -0.52268604647378       -0.01855792686941
N           -7.23990662292742       -1.76773158029804        0.18271869242322
C           -8.24746061410865       -2.69573603429094        0.23742582451621
C           -8.17546219435573       -4.06850454908341        0.42272886143000
C           -9.36196063215742       -4.77638388155941        0.44489503167499
C          -10.59112726146869       -4.13730872641955        0.28762852668839
C          -10.66770927933267       -2.77083390860138        0.10193524828252
C           -9.48885213215021       -2.03567569505327        0.07562292691927
C           -4.97016458090285        0.20728960309603        0.94875499254873
C           -3.59174870928091        0.25611192522907        0.99349978978931
C           -0.69262071829361        2.12064724981393        0.03554230648594
C           -1.40552603331852        3.41381300396000        0.02973505983683
C           -2.33422388617944        3.73073525333166        1.01995066789436
C           -2.96910069735981        4.95755439493816        0.96629597286583
C           -2.66316617112251        5.82621516963955       -0.07129801365080
C           -1.72505319287284        5.41833810037918       -1.00536609869180
N           -1.11118576528562        4.24902645929192       -0.96255755714748
C            0.70288021832778        2.11467869063986        0.04306797669830
C            1.42645727352890        3.40138081477787        0.08273769961762
C            2.35806648852837        3.73701426247484       -0.89857289183836
C            3.00231780832103        4.95709015238610       -0.81260792107720
C            2.70237434513180        5.80069717549839        0.24714412788450
C            1.76088309435133        5.37562046237410        1.17004937579549
N            1.13833647290888        4.21242493112662        1.09670962213449
C            1.39857971595775        0.90504459938693        0.02955533674242
C            2.87440896625697        0.89123213200726        0.04232604600695
C            3.58266631095882        1.49900273150935        1.07451456414381
C            4.96188651162870        1.43977780206039        1.11048534083570
C            5.67105004952803        0.77229212338473        0.11463313718338
C            7.13581796626630        0.66041035023988        0.17942191966928
C            7.94810822154886        1.75499303815888        0.44910860416254
C            9.33452864389385        1.64673093276098        0.50506488206595
C            9.96713817979733        0.43501631770985        0.30553577305527
C            9.18587287623649       -0.68552806978853        0.04984616938304
C            7.77786610760778       -0.56447156500922       -0.01581929599083
N            7.23558667211517       -1.80264021972529       -0.25079338515276
C            8.24200915837781       -2.72923129182276       -0.33982186625049
C            8.16750872672726       -4.09615163844259       -0.56347076882164
C            9.35316512486524       -4.80407823605384       -0.61312055982755
C           10.58391340774480       -4.17069569225959       -0.44561106026245
C           10.66302715484730       -2.81000743725594       -0.22229611025687
C            9.48501659077276       -2.07500949895356       -0.16738222206927
C            4.96053669618988        0.19629669406546       -0.93726489977725
C            3.58213244565957        0.25342859854114       -0.97194683900869
C            2.30509700704199       -1.90397483547640        1.03440108376292
C            2.99175746441419       -3.10431349215335        1.02613132701368
H            3.35576190730272       -4.93550784221214       -0.02387508875077
H            1.80572890176932       -4.38381743073366       -1.86481744363766
H            0.57917518514856       -2.25122859523505       -1.84710290813432
H           -2.45377261592592       -1.15016065120337       -1.85514249879002
H           -3.69845623015005       -3.27205744393250       -1.88687328261229
H           -3.40364972802617       -4.90723563239762       -0.05979672693060
H           -1.85238217122431       -4.40679269826772        1.79472484326724
H           -0.60822794350434       -2.28417481044966        1.82309673519520
H           -3.02482501434102        2.07466458921641       -1.79284297313292
H           -5.48158030466359        1.98288928425570       -1.87668947109326
H           -7.48063235345028        2.77880454272265       -0.53145401283431
H           -9.91576409419289        2.59506214269450       -0.66270989056059
H          -11.04132102822473        0.41213107189070       -0.38112675942739
H           -6.25542459638375       -1.96789903031772        0.23356522534260
H           -7.22352043329112       -4.56412452737555        0.54492898253714
H           -9.33890015927607       -5.84720981640409        0.58701842976715
H          -11.49680439617501       -4.72573477517034        0.31162911357169
H          -11.62266803645626       -2.28144774577625       -0.01953147804294
H           -5.51408555111457       -0.28799260583293        1.74088838093323
H           -3.06226371199520       -0.21578171823853        1.80829841677924
H           -2.53695717754977        3.03151506809446        1.81602551364671
H           -3.69044930549105        5.23458942754934        1.72179673841158
H           -3.13643376524959        6.79246142109012       -0.15221277943471
H           -1.44438266105956        6.05489691510928       -1.83592486654116
H            2.55663088663993        3.05725641917678       -1.71232681652353
H            3.72636707621159        5.24816113906850       -1.56021576719154
H            3.18276631415698        6.76096113246673        0.35335381776428
H            1.48487141271604        5.99261632633287        2.01680953878835
H            3.04191253269438        2.00086701911925        1.86475840273443
H            5.49874364288496        1.89379286384803        1.93080768472329
H            7.48585840463900        2.72009279932067        0.59977896601523
H            9.92158552136271        2.53063353849930        0.70813388171463
H           11.04282514936515        0.35625726304847        0.35214872471751
H            6.25064977848167       -2.00097014873332       -0.30014069078600
H            7.21433266075754       -4.58744207901368       -0.69333476399889
H            9.32813744235277       -5.87047257959166       -0.78502745350152
H           11.48883607048684       -4.75898361617958       -0.49159558733384
H           11.61922680121851       -2.32507504330998       -0.09301264744759
H            5.49671133504992       -0.28054200428669       -1.74577622010175
H            3.04486334168236       -0.19414629307566       -1.79534688837025
H            2.43937802286140       -1.20914899385320        1.85099084591919
H            3.66667947065267       -3.34122047622544        1.83644062674182
