  110
       -170.12417269
 C          2.8912734952       -3.6149492711       -0.3039873425
 C          1.9079235886       -3.3620414876       -1.2466605978
 C          1.1974775257       -2.1771924270       -1.2117101128
 C          1.4631608323       -1.2201627544       -0.2348665691
 C          0.7211776091        0.0550045903       -0.1971855000
 C         -0.6566201946        0.0399544244       -0.0804266467
 C         -1.3953361043       -1.2400992641       -0.0752228518
 C         -2.3977573990       -1.4734856220       -1.0141519477
 C         -3.1177851170       -2.6531790832       -0.9971684498
 C         -2.8449187031       -3.6214211703       -0.0443006749
 C         -1.8427273572       -3.4036145857        0.8864039263
 C         -1.1236201552       -2.2231374638        0.8723671772
 C         -1.3832689893        1.2534635822        0.0254306957
 C         -2.8342283846        1.2048674811        0.1570823936
 C         -3.6748056026        1.9335560478       -0.6916298942
 C         -5.0382048654        1.7399241177       -0.6686891547
 C         -5.6144955228        0.8127415198        0.2020951382
 C         -7.0326995701        0.4667473769        0.1272957080
 C         -8.0474905191        1.4121063547        0.0155039019
 C         -9.3869680507        1.0451281476       -0.0437235734
 C         -9.7726717691       -0.2830104557       -0.0125981931
 C         -8.7849429649       -1.2568715503        0.0701540116
 C         -7.4257373583       -0.8758217778        0.1412594340
 N         -6.6459036455       -2.0027939140        0.1718449423
 C         -7.4499219909       -3.1096290922        0.1271359216
 C         -7.1048293860       -4.4528602578        0.1333490380
 C         -8.1284483546       -5.3795974703        0.0886798657
 C         -9.4637115187       -4.9825744102        0.0390132406
 C         -9.8130905589       -3.6460839905        0.0301585286
 C         -8.8028968108       -2.6944441472        0.0742504455
 C         -4.7853305806        0.1640603726        1.1228155979
 C         -3.4260060985        0.3583622440        1.1032866203
 C         -0.6863395529        2.4734675909       -0.0097623038
 C         -1.4274443083        3.7482677316        0.0655336458
 C         -2.2329973390        4.0396471297        1.1662551343
 C         -2.8933511562        5.2524394436        1.2015994906
 C         -2.7380014158        6.1343816494        0.1419457109
 C         -1.9251060010        5.7476625718       -0.9106726499
 N         -1.2929371493        4.5906808041       -0.9529038515
 C          0.6961797623        2.4999453657       -0.1046478584
 C          1.3646345047        3.8035043787       -0.1864454825
 C          2.2644106729        4.0882547713       -1.2184403188
 C          2.8226179697        5.3482026481       -1.2876399793
 C          2.4775805373        6.2935327512       -0.3300218120
 C          1.5808197976        5.9166487129        0.6562050417
 N          1.0442295223        4.7154948340        0.7302797073
 C          1.4367527614        1.2889387060       -0.1996314056
 C          2.8664875328        1.2804621217       -0.2643247871
 C          3.6691526168        2.1099795196        0.5659617536
 C          5.0135744086        1.9175184803        0.6711399822
 C          5.6723645524        0.8806650688       -0.0435800764
 C          7.0227007264        0.5075374381        0.2232336414
 C          8.0177910547        1.4236354649        0.6446594578
 C          9.3257838134        1.0430283317        0.8490003578
 C          9.7435530471       -0.2774854152        0.6865087077
 C          8.7895326509       -1.2251269248        0.3247397852
 C          7.4519582442       -0.8350258919        0.1028688642
 N          6.7002541007       -1.9508727793       -0.1429681573
 C          7.5001409744       -3.0600121173       -0.1100082180
 C          7.1717081403       -4.3930390276       -0.3045882630
 C          8.1909785720       -5.3224902000       -0.2238653299
 C          9.5038741443       -4.9340820293        0.0453271206
 C          9.8356585164       -3.6076164722        0.2442215280
 C          8.8302490757       -2.6524353105        0.1668144695
 C          4.8993299530        0.1891324251       -1.0164771216
 C          3.5580410818        0.3778039373       -1.1187968990
 C          2.4454184838       -1.4904658043        0.7174869735
 C          3.1533885155       -2.6768622482        0.6817186150
 H          3.4437545121       -4.5429520768       -0.3328302349
 H          1.6967864145       -4.0920923256       -2.0145544162
 H          0.4409607569       -1.9800405074       -1.9565493291
 H         -2.6104442004       -0.7240709382       -1.7622242323
 H         -3.8928130040       -2.8204424872       -1.7326624259
 H         -3.4068279707       -4.5440761808       -0.0294077536
 H         -1.6246800617       -4.1562944634        1.6302416746
 H         -0.3534014847       -2.0531956953        1.6099386080
 H         -3.2399685731        2.6067328794       -1.4153323364
 H         -5.6688879235        2.2662999657       -1.3702642319
 H         -7.7821925339        2.4589632020        0.0009018773
 H        -10.1390552787        1.8170702828       -0.1132810214
 H        -10.8148078642       -0.5591814163       -0.0599925552
 H         -5.6390033688       -2.0065507036        0.1680707581
 H         -6.0701377336       -4.7593879352        0.1733637513
 H         -7.8911628569       -6.4332065303        0.0924141611
 H        -10.2350523956       -5.7374538154        0.0067529815
 H        -10.8489795225       -3.3448969332       -0.0095112055
 H         -5.2252328881       -0.4829177185        1.8686293226
 H         -2.8021788415       -0.1447628841        1.8265698680
 H         -2.3198587887        3.3300538981        1.9739785437
 H         -3.5199104977        5.5099837971        2.0437494289
 H         -3.2342586336        7.0922111549        0.1323470162
 H         -1.7708761265        6.3905898294       -1.7681290172
 H          2.4929991967        3.3343802541       -1.9554983667
 H          3.5151782683        5.5962770760       -2.0793932026
 H          2.8929050678        7.2887719065       -0.3484851940
 H          1.2786235538        6.6067051706        1.4341817727
 H          3.1830848381        2.8384952487        1.1965805931
 H          5.5810399993        2.5004201694        1.3804985935
 H          7.7447194448        2.4611185738        0.7583938924
 H         10.0499228090        1.7898643462        1.1406011819
 H         10.7694994814       -0.5608115025        0.8582148346
 H          5.6977746667       -1.9578979543       -0.2472983508
 H          6.1546017252       -4.6891238128       -0.5142170035
 H          7.9698398433       -6.3688732540       -0.3717956950
 H         10.2727808338       -5.6902810866        0.0984080300
 H         10.8539169880       -3.3172729814        0.4535358204
 H          5.4069216536       -0.4464316270       -1.7282417030
 H          3.0022633273       -0.1278880013       -1.8939003398
 H          2.6465627013       -0.7666348119        1.4935310538
 H          3.9087779644       -2.8747439315        1.4301905917
