  110
       -170.22067761
 C          2.9189265264       -3.6396168921       -0.3074045095
 C          1.9476672608       -3.3623436014       -1.2544891425
 C          1.2198459857       -2.1888899555       -1.1819075107
 C          1.4553259675       -1.2743727965       -0.1604765401
 C          0.7081726432        0.0002545097       -0.1061250484
 C         -0.6860881144       -0.0029567575       -0.0478936288
 C         -1.4362063820       -1.2770006634       -0.0459378506
 C         -2.4139903332       -1.5187601578       -1.0071263835
 C         -3.1555444840       -2.6849642524       -0.9774080218
 C         -2.9255259445       -3.6301823065        0.0088700981
 C         -1.9424370441       -3.4062920038        0.9578784175
 C         -1.2022065271       -2.2385554261        0.9315010658
 C         -1.3860480829        1.2085220310        0.0158112609
 C         -2.8585791931        1.1766664227        0.0819264597
 C         -3.6356722541        1.8026057169       -0.8872837517
 C         -5.0074206333        1.6396957448       -0.8972628529
 C         -5.6317633408        0.8437637674        0.0582623389
 C         -7.0651883962        0.5334543468       -0.0210313098
 C         -8.0465328284        1.4992203639       -0.1933234551
 C         -9.3970278365        1.1665923409       -0.2559964608
 C         -9.8181956143       -0.1456359906       -0.1649639246
 C         -8.8598767324       -1.1411577533       -0.0155874104
 C         -7.4919159591       -0.7934699947        0.0582662228
 N         -6.7436685531       -1.9368737571        0.1760621092
 C         -7.5790390051       -3.0222504077        0.1812033723
 C         -7.2737260816       -4.3712834473        0.2790755409
 C         -8.3225881858       -5.2703693877        0.2677869936
 C         -9.6444427958       -4.8411530034        0.1623379935
 C         -9.9542393173       -3.4990595494        0.0643243559
 C         -8.9177224556       -2.5745245853        0.0732840944
 C         -4.8588223392        0.2847037760        1.0745870336
 C         -3.4910764331        0.4519580933        1.0882408733
 C         -0.6908265899        2.4161032155        0.0022842067
 C         -1.4105757377        3.7036706458        0.0411249250
 C         -2.3156902183        3.9950938203        1.0597335294
 C         -2.9509017508        5.2229369103        1.0487146252
 C         -2.6675186870        6.1157572202        0.0263997462
 C         -1.7536534708        5.7289160146       -0.9407998501
 N         -1.1429278462        4.5593313225       -0.9401721158
 C          0.7037472320        2.4195766212       -0.0642415244
 C          1.4160513707        3.7117026602       -0.0606253255
 C          2.3231397562        4.0387154179       -1.0666411491
 C          2.9452138179        5.2724172084       -1.0206386637
 C          2.6484572116        6.1349497844        0.0237110149
 C          1.7353837637        5.7130304638        0.9768775129
 N          1.1359105876        4.5381911476        0.9420140744
 C          1.4043365007        1.2157430627       -0.1158824322
 C          2.8780514827        1.1928752950       -0.1477825498
 C          3.6208515187        1.7978008072        0.8613597642
 C          4.9915294717        1.6358797383        0.9152086604
 C          5.6490323674        0.8595887259       -0.0341966853
 C          7.0764706148        0.5386867438        0.0986361800
 C          8.0580260753        1.4946046697        0.3170477521
 C          9.4008987826        1.1484498571        0.4404865286
 C          9.8125095654       -0.1680429483        0.3695737591
 C          8.8523516293       -1.1539322301        0.1754138171
 C          7.4932670146       -0.7921227555        0.0356510376
 N          6.7393930316       -1.9275702839       -0.1178140960
 C          7.5622843241       -3.0218014455       -0.0785918607
 C          7.2472439379       -4.3680341130       -0.1842900464
 C          8.2840974994       -5.2783736558       -0.1154958282
 C          9.6038236231       -4.8629684591        0.0533678522
 C          9.9233449439       -3.5237812304        0.1591210159
 C          8.8988986864       -2.5881225122        0.0936078306
 C          4.9130129207        0.3246571522       -1.0898811288
 C          3.5462985442        0.4935046350       -1.1488681621
 C          2.4231316638       -1.5682389087        0.7961067718
 C          3.1513359255       -2.7410542347        0.7210577483
 H          3.4877880801       -4.5560093143       -0.3678022122
 H          1.7592460462       -4.0623904054       -2.0553147889
 H          0.4713207711       -1.9708999129       -1.9292580043
 H         -2.5928399680       -0.7871019077       -1.7809171550
 H         -3.9144416851       -2.8584280004       -1.7277128724
 H         -3.5054072425       -4.5413071086        0.0337214874
 H         -1.7553383235       -4.1432007157        1.7252448590
 H         -0.4460145086       -2.0620419439        1.6820255849
 H         -3.1536715585        2.3870405262       -1.6576519551
 H         -5.6009294871        2.0963433790       -1.6758196032
 H         -7.7505834021        2.5360990539       -0.2582838620
 H        -10.1252455556        1.9548056557       -0.3770697165
 H        -10.8668615112       -0.3962129477       -0.2140613262
 H         -5.7379324095       -1.9681104564        0.1954301786
 H         -6.2494872187       -4.7036561011        0.3623768218
 H         -8.1158465926       -6.3278454528        0.3425053556
 H        -10.4363070000       -5.5752472775        0.1578185717
 H        -10.9797720579       -3.1717852560       -0.0169385249
 H         -5.3407885958       -0.2810727005        1.8591721166
 H         -2.9008746228        0.0054660047        1.8750035527
 H         -2.5000381309        3.2777803719        1.8440318253
 H         -3.6544951070        5.4821060802        1.8271300256
 H         -3.1407458084        7.0842939746       -0.0181826709
 H         -1.4948645783        6.3844124831       -1.7629932814
 H          2.5179768596        3.3440679725       -1.8686354762
 H          3.6491005268        5.5595624684       -1.7889464961
 H          3.1106464516        7.1072146130        0.0952566835
 H          1.4670347685        6.3434829226        1.8154465816
 H          3.1116403067        2.3628265465        1.6286040645
 H          5.5572203784        2.0748004332        1.7240951926
 H          7.7692141887        2.5340971856        0.3722977829
 H         10.1304389337        1.9291670336        0.5963153098
 H         10.8549362489       -0.4292357584        0.4690412644
 H          5.7357108394       -1.9486210147       -0.1882632604
 H          6.2247426957       -4.6899076727       -0.3159650257
 H          8.0695178553       -6.3339828646       -0.1942144128
 H         10.3862405556       -5.6056323594        0.1017001181
 H         10.9472201043       -3.2072056010        0.2898589716
 H          5.4226902278       -0.2260920079       -1.8676865673
 H          2.9851058558        0.0658456770       -1.9666571220
 H          2.6034709784       -0.8734139271        1.6029524752
 H          3.8997400286       -2.9576292628        1.4709152114
