110
 energy: -170.286996402685 gnorm: 0.000065143357 xtb: 6.7.1 (edcfbbe)
C            2.83958254063394       -3.93091691785116        0.01773071343301
C            1.97932731273304       -3.63064675860988       -1.02538742316140
C            1.28136688027053       -2.43681950588154       -1.02874208420287
C            1.44064726122024       -1.52400452358673        0.00895233912143
C            0.70028315518807       -0.24369134321322        0.00375609656907
C           -0.69641503472045       -0.24467014036249       -0.01305360783215
C           -1.43507708912677       -1.52577063805596       -0.03389845808850
C           -2.30169842747249       -1.82217446814691       -1.08125682976399
C           -2.99095837290872       -3.02086247930922       -1.10243279985657
C           -2.83062133284513       -3.93427295036890       -0.07344758062946
C           -1.97133507458337       -3.64583130033236        0.97380039773072
C           -1.27507105173081       -2.45113236600901        0.99247804028572
C           -1.39765306671809        0.96534229273516       -0.01551765117938
C           -2.87343804308851        0.95942005917975       -0.03861421270897
C           -3.57096376308129        1.59338895117148       -1.06234631252161
C           -4.95067556332414        1.55339281793597       -1.10255685374062
C           -5.67165841304582        0.87973041850813       -0.11932862485556
C           -7.13877370001264        0.80167704942646       -0.18288356643373
C           -7.92392388857840        1.92113086731102       -0.43059430990014
C           -9.31281017586171        1.84978506832888       -0.48259805263886
C           -9.97573154465380        0.65162563277521       -0.30052389723143
C           -9.22251621378038       -0.49267532346770       -0.06717024871345
C           -7.81147226289974       -0.40948418948850       -0.00647337966942
N           -7.30092271559270       -1.66533087003292        0.20447983681032
C           -8.33086895438533       -2.56679294878721        0.28256166765933
C           -8.29141307707886       -3.93882742806921        0.48249615393070
C           -9.49509712229712       -4.61602245493100        0.52682874881153
C          -10.70959274729235       -3.94760428457522        0.37769398651338
C          -10.75380929057177       -2.58174653021974        0.17751436522308
C           -9.55704561863610       -1.87732361746456        0.12810692064751
C           -4.97126240704579        0.27178967844255        0.92131163147548
C           -3.59219019043287        0.30948872428591        0.96006976885985
C           -0.69769902545523        2.17264827827714       -0.00111064239219
C           -1.41553334082797        3.46302348566082       -0.02478672589405
C           -2.35331755660967        3.78714967775429        0.95445290340320
C           -2.99030879283820        5.01202338178341        0.88391720835194
C           -2.67756211342656        5.87164660348611       -0.15914436829232
C           -1.73114106976849        5.45688614338681       -1.08169427147457
N           -1.11517671363522        4.28938780422674       -1.02274008157840
C            0.69764144055520        2.17363630189150        0.01876210285881
C            1.41359384132222        3.46475439038175        0.05590480960858
C            2.35229025763779        3.79957321017681       -0.91890497552402
C            2.98780547987998        5.02440313646473       -0.83553636964386
C            2.67261352289341        5.87347318409231        0.21540151598207
C            1.72527412236976        5.44873221134261        1.13245136644854
N            1.11085509293179        4.28108312259894        1.06138115399755
C            1.39956209221703        0.96737174744884        0.02052974591438
C            2.87529273782358        0.96356563376474        0.04569906764543
C            3.57033078427809        1.58855531046026        1.07666133613256
C            4.94995082891717        1.54851181853807        1.11973658031686
C            5.67339708577289        0.88379418989667        0.13222300579359
C            7.14001099211943        0.80224869088817        0.20017133999601
C            7.92695025525502        1.91626185709998        0.46615333817835
C            9.31540656665470        1.84051738110727        0.52324398862619
C            9.97603374191139        0.64317162930158        0.32786576369624
C            9.22095318227451       -0.49590945204002        0.07568597643224
C            7.81041793371710       -0.40813487537169        0.00987702405680
N            7.29756646369891       -1.65956672361228       -0.22085041392063
C            8.32553374497978       -2.56249720044797       -0.30720003514695
C            8.28327850998189       -3.93143557397854       -0.52680797364338
C            9.48532092592209       -4.61125765327754       -0.57510406993188
C           10.70084396122238       -3.94841874759659       -0.41034181467848
C           10.74784048247848       -2.58559630641285       -0.19097596692878
C            9.55277653003235       -1.87857526212524       -0.13742832710706
C            4.97559128013003        0.28650924394326       -0.91632359726855
C            3.59662343612930        0.32409380919872       -0.95785043113748
C            2.30816598370445       -1.83229230361333        1.05213622077838
C            2.99914429862080       -3.03017833733385        1.05794603322398
H            3.38212136619512       -4.86521501872939        0.02152990587007
H            1.85050211165014       -4.32928421384283       -1.83941490829949
H            0.61471145766472       -2.20172193346834       -1.84581222351977
H           -2.42489874645532       -1.11240387065477       -1.88670710199348
H           -3.65735536196628       -3.24160372613207       -1.92426323781584
H           -3.37173021835187       -4.86927968808445       -0.08928895264736
H           -1.84203303473258       -4.35436253907026        1.77917658976281
H           -0.60904162437970       -2.22526675551338        1.81265230719805
H           -3.02159698072622        2.10272929454313       -1.84179936200202
H           -5.47910338592028        2.02980665169873       -1.91562577287274
H           -7.43748214565703        2.87652749459372       -0.56619983415889
H           -9.87747528127007        2.75192931093270       -0.66811018417093
H          -11.05328519891769        0.60134926167228       -0.34329541033035
H           -6.32141794420991       -1.89047900777101        0.24431104656645
H           -7.35097227056341       -4.45737729063664        0.59840912490225
H           -9.49718620519094       -5.68553408552615        0.68028923336482
H          -11.62950749267659       -4.51250147960611        0.41922352090381
H          -11.69746738724661       -2.06949990682917        0.06213774856411
H           -5.51557715784425       -0.21307489013988        1.71957271692128
H           -3.06330841052827       -0.16112111372884        1.77600560654187
H           -2.56186667181640        3.09512008168230        1.75526135769864
H           -3.71851275780511        5.29450973117784        1.63077558277043
H           -3.15188234705245        6.83621975998647       -0.25288703626277
H           -1.44506425411990        6.08627013454472       -1.91588959896668
H            2.56296547656549        3.11566227077057       -1.72610058712023
H            3.71680919661479        5.31491251437243       -1.57853683984161
H            3.14581107406211        6.83756540532512        0.31927529521679
H            1.43728233010387        6.06979672052422        1.97221797729261
H            3.01905614864060        2.09041206178639        1.85961528489801
H            5.47631578854138        2.01744954982290        1.93846135123674
H            7.44246406805898        2.87107064886685        0.61247157530257
H            9.88161798078201        2.73855577605040        0.72341238794385
H           11.05324861486426        0.58947247752460        0.37483041025280
H            6.31763137709623       -1.88164713435198       -0.26743943595334
H            7.34197404801492       -4.44558730020067       -0.65469204543879
H            9.48527978575143       -5.67844270865624       -0.74395458554154
H           11.61941559394183       -4.51523635068249       -0.45528636196886
H           11.69235062396902       -2.07774001218671       -0.06378128414331
H            5.52179261408487       -0.19000630813325       -1.71827933727623
H            3.06975454070934       -0.13867116791141       -1.77954758343182
H            2.43093400102786       -1.13240109122650        1.86623835041787
H            3.66619070803288       -3.26023488130372        1.87669011913152
