110
 energy: -170.190105078326 gnorm: 0.000060907638 xtb: 6.7.1 (edcfbbe)
C            2.77093316499389       -4.04094861840528        0.12157957656544
C            1.88876958646822       -3.77685080820977       -0.91374436413243
C            1.21637247809424       -2.57008244225054       -0.96440055564326
C            1.42302584711034       -1.60243131719541        0.01637337922258
C            0.69826395232421       -0.31612240598809       -0.01444554914714
C           -0.68454293912770       -0.31560423008343        0.02403369758957
C           -1.42496948955306       -1.59585056036512        0.00071240163650
C           -2.31221218494179       -1.87114461017537       -1.03636568532013
C           -3.00035345490431       -3.06988606792793       -1.07236815860160
C           -2.82033588716007       -4.00684734386816       -0.06785519033267
C           -1.94340045829308       -3.73967832048993        0.97063325266454
C           -1.24854864164259       -2.54470522743755        1.00395956996473
C           -1.40700053060148        0.90364655300848        0.05644176206985
C           -2.86312784745544        0.89856192590980        0.07430054596640
C           -3.60269173940607        1.68919658419902       -0.81650108941623
C           -4.97663640574823        1.63629075098920       -0.84073498457263
C           -5.68193978653021        0.79132321952414        0.02365088681898
C           -7.13730850162592        0.68665827371160       -0.04764374195241
C           -7.95390289706487        1.80565950152032       -0.21425281413967
C           -9.33746844415763        1.70654554759281       -0.27450781108453
C           -9.97680379137074        0.48111696237476       -0.18872428997767
C           -9.19772483996535       -0.65983157252040       -0.04460365786159
C           -7.78901969290579       -0.55079943928416        0.02881408035575
N           -7.25259346697027       -1.80826759011171        0.12855965185738
C           -8.26024273729702       -2.73668213010453        0.12658964001789
C           -8.18806494282761       -4.11995976642145        0.20737997539504
C           -9.37596430634837       -4.82591218224533        0.19054106413335
C          -10.60519479225884       -4.17444534824507        0.09603416887750
C          -10.68177352685573       -2.79687437698068        0.01396118799512
C           -9.50223429207717       -2.06382740555489        0.02992228191136
C           -4.94700769743285        0.03841063715562        0.94751619541595
C           -3.57375499164904        0.08930642802663        0.97171876238587
C           -0.68917411278602        2.11720549434010        0.05973294283776
C           -1.41116031131408        3.40504658142478        0.09676005008030
C           -2.25432675988827        3.71659264041249        1.16373975167328
C           -2.89656811789777        4.93959269220165        1.16889531951741
C           -2.68651426179392        5.81236855234915        0.10975059794923
C           -1.83621795996509        5.40812792208119       -0.90531982375131
N           -1.21646883022604        4.24105196213333       -0.91990070606795
C            0.69507802228830        2.12632731416338        0.04587665496483
C            1.38097159173102        3.42625502665485       -0.00851150710096
C            2.27690514147951        3.72002650921133       -1.04037068165672
C            2.86071497467452        4.97001689739345       -1.08171423072401
C            2.54332946579419        5.89379197510263       -0.09322270860907
C            1.64656453006013        5.50844617207562        0.88880619883309
N            1.08074094660534        4.31600946309351        0.93794049579394
C            1.42929021152308        0.90832396344608        0.00303632199455
C            2.86260298215433        0.90505236931908       -0.01098745029436
C            3.62577323510512        1.77890017843379        0.80921878138792
C            4.98615502299126        1.72062852749970        0.84683414611548
C            5.71577841893232        0.78235555652409        0.06744605883300
C            7.13693415678489        0.66738467576798        0.16384790854527
C            7.96730402508317        1.77743717672177        0.46449857332080
C            9.34062254172014        1.68444521089454        0.49964524234658
C           10.00260728616464        0.47821794470228        0.26837886527388
C            9.23006838955811       -0.65065036150113        0.01300102516838
C            7.82150065087938       -0.55570547344934       -0.03362677603070
N            7.30409331652108       -1.80939708711194       -0.21168589389325
C            8.31972776016806       -2.72270976456582       -0.30176653298235
C            8.26128676777335       -4.09706714210380       -0.48414340340136
C            9.45804879707732       -4.78524056715499       -0.54623126217176
C           10.68104476885138       -4.12232483972879       -0.43033308744801
C           10.74381490678646       -2.75383562472771       -0.24486698881273
C            9.55529481389315       -2.03766177794964       -0.18002309102946
C            4.95570658947024       -0.03247135428752       -0.81454811347867
C            3.59594016479991        0.02070025014625       -0.84659375973688
C            2.31520444099179       -1.87638236827333        1.05153119100847
C            2.97892037560228       -3.08773818445044        1.10543953451794
H            3.29128252281198       -4.98683575362513        0.16317031197457
H            1.72307054027691       -4.51492312648947       -1.68538070864285
H            0.53529369910501       -2.36447394537870       -1.77753442243567
H           -2.45117027668269       -1.14251331579061       -1.82268259278191
H           -3.68022208338428       -3.27303425433906       -1.88797965149630
H           -3.35977103826723       -4.94259833022781       -0.09528777849198
H           -1.79975036990580       -4.46526858055678        1.75835940148470
H           -0.57030749746652       -2.33557080649292        1.81878796843376
H           -3.07839691463589        2.31215700212694       -1.52674622059747
H           -5.52115725517525        2.22276116240683       -1.56662754166076
H           -7.49064381321581        2.77990692951540       -0.27063766626415
H           -9.92325774616635        2.60705289482471       -0.38871725609176
H          -11.05259673359836        0.41179061884272       -0.23964816742619
H           -6.26739757825144       -2.01361924974480        0.14315416463527
H           -7.23573438825279       -4.62400792724498        0.28075912630946
H           -9.35392440412144       -5.90417588572707        0.25194403768248
H          -11.51187317483594       -4.76149354741617        0.08654403240071
H          -11.63715586536289       -2.29934811943110       -0.05996374664684
H           -5.46829573656795       -0.55957707390032        1.68208610516468
H           -3.03196046164617       -0.48009165437633        1.71195506708625
H           -2.38338132290424        3.01256089913994        1.97137222126528
H           -3.55091120523898        5.21205916614203        1.98478367632225
H           -3.16851209057077        6.77701268086764        0.07322792019537
H           -1.63666875816068        6.04419604276193       -1.75965269003870
H            2.48401908551743        2.98079666745094       -1.79893303155663
H            3.55051739529241        5.22697218159355       -1.87308640742656
H            2.97826894155610        6.88108758164840       -0.08662986663420
H            1.36212035888349        6.18367565754905        1.68740926135935
H            3.10285613290038        2.45094512011286        1.47406181695869
H            5.52279253070915        2.35135275207492        1.53977743170424
H            7.50076549528189        2.73789321775180        0.62045565635810
H            9.92179921979535        2.57171473426339        0.70635985982901
H           11.07858054798345        0.41881452928980        0.30573922451578
H            6.32186979434164       -2.03314893090172       -0.20593439975419
H            7.31364372263769       -4.60704063257929       -0.57383195278628
H            9.44958140878678       -5.85581987134108       -0.68771255714257
H           11.59498933316547       -4.69535126764138       -0.48522104730233
H           11.69481759867429       -2.25114972139392       -0.15408003669182
H            5.47409012117850       -0.64514125593487       -1.53853661476059
H            3.05724984025556       -0.57004491784712       -1.57192284025186
H            2.47285002362693       -1.13713594748123        1.82428075252080
H            3.66119900585204       -3.28875054140858        1.91948739453481
