110
 energy: -170.190215415971 gnorm: 0.000045139639 xtb: 6.7.1 (edcfbbe)
C            2.74296437643325       -4.12851506594953        0.08101108051860
C            1.88060023142986       -3.84094745394614       -0.96468554151785
C            1.21687657694852       -2.62904858815890       -1.00588259738326
C            1.41294657304174       -1.68001193037635       -0.00507458233275
C            0.69602634485433       -0.38914206025574       -0.02804261989359
C           -0.68727545568689       -0.38171435764440       -0.00785666763813
C           -1.43369458569352       -1.65771903593918       -0.05312983098257
C           -2.30999154877854       -1.91723406517912       -1.10344317105867
C           -3.00223733332433       -3.11271747420952       -1.16135279390116
C           -2.83854956081357       -4.06149503908205       -0.16518659416610
C           -1.97290688390741       -3.80986238756356        0.88656886745253
C           -1.27319798435586       -2.61853461697719        0.94140243495294
C           -1.40442630568521        0.84064919724024        0.02551218227558
C           -2.86060446305667        0.84754598165216        0.03136291811574
C           -3.58542385538038        1.65597730498479       -0.85591069014206
C           -4.96001276228514        1.63359513790227       -0.87657030441306
C           -5.68226931670919        0.80375702578681       -0.01108099850945
C           -7.14092716256685        0.75005341418151       -0.06510229290200
C           -7.91567896515859        1.90026288904008       -0.22236832571237
C           -9.30264008181168        1.85646548085555       -0.26193219927602
C           -9.98883781472009        0.65763063806141       -0.16265520231698
C           -9.25334581397937       -0.51273236918987       -0.02630429347060
C           -7.84028831648917       -0.46030300566849        0.02480147466963
N           -7.35391147829243       -1.73821115871967        0.12172101472682
C           -8.39824290519377       -2.62504702352163        0.14023869666602
C           -8.38104093051145       -4.00972445617373        0.22729346931824
C           -9.59675491612049       -4.66683772601505        0.23327829765835
C          -10.79993299859740       -3.96643124432369        0.15472400753001
C          -10.82177950031223       -2.58725919288092        0.06657155782063
C           -9.61327968072392       -1.90284586489777        0.05957979810755
C           -4.96089881387691        0.02440550336704        0.90163045989245
C           -3.58654581417104        0.04320549598099        0.92086172892249
C           -0.68030479281975        2.05030863254182        0.04714544234512
C           -1.39446812247060        3.34269424283605        0.08423310427585
C           -2.24571322388260        3.65429346204419        1.14473579669156
C           -2.87853900618619        4.88217218932530        1.15099419818816
C           -2.65135801940610        5.75965113072624        0.09931320700014
C           -1.79437234899763        5.35487122384379       -0.90987924445770
N           -1.18352444859440        4.18311992732225       -0.92547272038436
C            0.70395162992535        2.05220143853987        0.05316908031940
C            1.39632376848323        3.34933564598973        0.01801039910837
C            2.31029165320901        3.64624279877164       -0.99707705367676
C            2.89960466693498        4.89410652845509       -1.02064656432438
C            2.56986261117400        5.81275515402718       -0.03141599534397
C            1.65537626410750        5.42474205964697        0.93309365247916
N            1.08401068946235        4.23445609585006        0.96496808558492
C            1.43308303819112        0.83067126459348        0.01270021251466
C            2.86662432799688        0.82558154267001        0.02398570618502
C            3.61225928755554        1.69678593786954        0.86294070383526
C            4.97284988379011        1.65758099483901        0.90927533511262
C            5.72180556046304        0.74277399917632        0.12041704003684
C            7.14629879112582        0.66675650674138        0.20991011592951
C            7.94251600846830        1.80010331686247        0.51687693890498
C            9.31823211097860        1.75167044602276        0.54483598760485
C           10.01747532245352        0.56976954790996        0.29886016017208
C            9.28014887177568       -0.58060963463390        0.03582817078206
C            7.86889564996196       -0.53142998899627       -0.00334928242915
N            7.39237806367287       -1.79976607647751       -0.19237273398343
C            8.43720848918276       -2.67823294039903       -0.29585552486494
C            8.42370730738083       -4.05209356169832       -0.49051553183395
C            9.64240726649916       -4.69960926770790       -0.56299716451726
C           10.84330840620276       -3.99767761379643       -0.44576085848061
C           10.86140518738851       -2.62955400484714       -0.24848981932031
C            9.64998064263780       -1.95398503910383       -0.17262853026178
C            4.97823019141809       -0.08142701332673       -0.76658931897398
C            3.61759361772529       -0.04759079796951       -0.80724618968271
C            2.28559388779557       -1.97699073190989        1.04006969597905
C            2.94004446419489       -3.19382279699883        1.08462867981471
H            3.25646105606073       -5.07841804559144        0.11520126533545
H            1.72378669830015       -4.56444211475721       -1.75184061626447
H            0.55085758618132       -2.40426161082289       -1.82642192705699
H           -2.43653612224197       -1.17905013949494       -1.88291521036727
H           -3.67382852117485       -3.30361942995386       -1.98666093136270
H           -3.38182210128122       -4.99437080379585       -0.20948836036838
H           -1.84175939378437       -4.54481637787899        1.66779952013212
H           -0.60318776196664       -2.42201021148070        1.76608096192252
H           -3.04945642407756        2.27115321044175       -1.56423214135300
H           -5.49313804391887        2.23554527254506       -1.59823930100415
H           -7.41515577270662        2.85536010699392       -0.28728795733817
H           -9.85367847931176        2.77938915514146       -0.36996714925243
H          -11.06718541128269        0.63076665150248       -0.19689553067269
H           -6.37797081925975       -1.98401774819877        0.12125924386495
H           -7.44900535791442       -4.55194047331473        0.28815966748894
H           -9.61726680064464       -5.74481137933250        0.30017589871590
H          -11.72969372351712       -4.51621349874082        0.16295926645651
H          -11.75717289145435       -2.05147389042800        0.00557709722826
H           -5.49259295173651       -0.56616644825388        1.63470675424739
H           -3.05536423480619       -0.54488216618443        1.65419971758586
H           -2.38805509908467        2.94641657094738        1.94677600763134
H           -3.53869809292346        5.15477689493632        1.96214397858657
H           -3.12529206599475        6.72834100510112        0.06408406521766
H           -1.58142927457248        5.99448091954625       -1.75830547572332
H            2.52713229658940        2.91134305943919       -1.75710472769986
H            3.60331962238637        5.15325046757670       -1.79894896712069
H            3.00875133506478        6.79811285973738       -0.01099714139325
H            1.36041666921969        6.09594718742769        1.73128414343952
H            3.07529379115393        2.35289939213946        1.53252482063589
H            5.49538528436613        2.28714340735881        1.61396001547066
H            7.44617818441480        2.74367126186790        0.68355128505889
H            9.87126811239391        2.65537809735337        0.75736006652316
H           11.09497332387563        0.54440348373864        0.33051879758953
H            6.41831363977849       -2.05642656592953       -0.18404592798800
H            7.49332625507631       -4.59276612543902       -0.58112396795083
H            9.66875571424247       -5.76861441014100       -0.71381085829075
H           11.77548124821804       -4.53963373502393       -0.50909081751080
H           11.79549220152213       -2.09624429017806       -0.15681316877195
H            5.50882326053594       -0.68431077012669       -1.48988096703060
H            3.09269385488024       -0.64365374473307       -1.53828110802211
H            2.43510915585961       -1.25171795560376        1.82753942154749
H            3.60735804700526       -3.41333739750627        1.90620217789938
