  112
       -173.61942650
 N        -12.6975070470       -3.0942044156        0.3070911939
 C        -11.5900611314       -2.7989155085        0.2483969861
 C        -10.2299611751       -2.4290485801        0.1794408830
 C         -9.2635140086       -3.1743259560        0.8606733479
 C         -7.9419602957       -2.7955341341        0.7992153705
 C         -7.5525255461       -1.6678411444        0.0679433795
 C         -6.1404225784       -1.3369166163        0.0533792094
 N         -5.2040186582       -2.2495476655        0.1646492088
 C         -4.0229656274       -1.5880979195        0.1012491685
 C         -2.7105863985       -2.1359675525        0.1268338700
 C         -2.4934081510       -3.5157112087        0.2044135374
 C         -1.2203014096       -4.0232574507        0.1863593800
 C         -0.1217369856       -3.1578546428        0.0909778096
 C          1.2486501747       -3.6833446574        0.0606301290
 C          1.5676138117       -4.8210953424       -0.6786916638
 C          2.8605261806       -5.2970458544       -0.7307761654
 C          3.8802574142       -4.6573022291       -0.0246502933
 N          5.1923820407       -5.1331780272       -0.0753423196
 C          5.4374033494       -6.5093696585       -0.1476081447
 C          6.4840159822       -7.0013148183       -0.9270781013
 C          6.7239777714       -8.3600567582       -0.9929036782
 C          5.9241553141       -9.2490098671       -0.2936449914
 C          4.8811958674       -8.7658974095        0.4796566611
 C          4.6386370062       -7.4084697385        0.5587967377
 C          6.2642554179       -4.2339245876       -0.0573932236
 C          7.4400613509       -4.5480441284        0.6239464743
 C          8.4962070309       -3.6578019602        0.6377610159
 C          8.3976016173       -2.4404545152       -0.0157419334
 C          7.2311114143       -2.1220570433       -0.6918672763
 C          6.1732579341       -3.0094938648       -0.7198022381
 C          3.5628203594       -3.5293663458        0.7332400190
 C          2.2713942586       -3.0493211603        0.7648546581
 C         -0.3389162713       -1.7924477739        0.0221460611
 C         -1.6231507772       -1.2375529167        0.0440504713
 C         -1.8582275479        0.1969272418        0.0044778233
 C         -0.7984825319        1.1082045515        0.0254238228
 C         -0.9874925352        2.4790799374        0.0273019268
 C          0.1635116291        3.3878905801        0.0531326442
 C          0.1693062057        4.5606905287       -0.7004907161
 C          1.2588884243        5.4049764918       -0.6967591922
 C          2.3805481840        5.1115307143        0.0804122802
 N          3.4867379853        5.9623091728        0.0865350288
 C          4.7788131243        5.4354111763        0.1957867822
 C          5.7567152014        6.1095396966        0.9270314538
 C          7.0319297562        5.5888925823        1.0300987001
 C          7.3521539136        4.3882670859        0.4177531761
 C          6.3840736233        3.7130810190       -0.3073037676
 C          5.1088428970        4.2307886588       -0.4249440345
 C          3.3072051640        7.3468095735       -0.0230841599
 C          2.2383245174        7.9744797745        0.6158461388
 C          2.0636248685        9.3399428407        0.5007957882
 C          2.9511012120       10.1011468930       -0.2420548903
 C          4.0177668179        9.4832357872       -0.8742814396
 C          4.1962776410        8.1174238433       -0.7718563918
 C          2.3728772401        3.9477317574        0.8511453689
 C          1.2865379315        3.1003893567        0.8283231704
 C         -2.2961550606        2.9755985565        0.0170687624
 C         -3.3626890739        2.1145892079       -0.0042648265
 C         -3.1780923206        0.7243763845       -0.0257293741
 C         -4.2457565119       -0.2157040646       -0.0325946775
 N         -5.6118132660       -0.0703004314       -0.0776943252
 C         -6.3563423499        1.1193776030       -0.2166260615
 C         -6.3074260396        1.8320822110       -1.4114267090
 C         -7.0614495744        2.9824519856       -1.5522336271
 C         -7.8656790919        3.4199476803       -0.5116118460
 C         -7.9139696461        2.7077686900        0.6753059343
 C         -7.1611511464        1.5570216823        0.8283325542
 C         -8.5205160075       -0.9472841599       -0.6348003341
 C         -9.8465604741       -1.3206456551       -0.5774605996
 H         -9.5630537309       -4.0398624089        1.4329763960
 H         -7.1801800190       -3.3592077403        1.3143348195
 H         -3.3562676320       -4.1600189134        0.2727368253
 H         -1.0550420487       -5.0879589269        0.2604044052
 H          0.7969205341       -5.3186072108       -1.2488989949
 H          3.0935199226       -6.1664049190       -1.3279476721
 H          7.1029479245       -6.3108966567       -1.4812771256
 H          7.5367432352       -8.7272117169       -1.6021689680
 H          6.1123096426      -10.3102262194       -0.3504841135
 H          4.2557888513       -9.4508537616        1.0330474120
 H          3.8307913507       -7.0333479690        1.1700886873
 H          7.5165572763       -5.4917898677        1.1437803269
 H          9.3997390859       -3.9138039205        1.1712049771
 H          9.2234011173       -1.7457452929        0.0009573335
 H          7.1466335023       -1.1782738533       -1.2104880780
 H          5.2691522557       -2.7632127990       -1.2570827423
 H          4.3381338679       -3.0349728007        1.2999764675
 H          2.0437658790       -2.1849369890        1.3715013846
 H          0.5253442024       -1.1562870705       -0.0802889892
 H          0.2161014352        0.7457057137        0.0306595363
 H         -0.6797504606        4.7966354648       -1.3251189247
 H          1.2531950787        6.2976496464       -1.3047674065
 H          5.5072245227        7.0407075389        1.4143305853
 H          7.7785767563        6.1206964900        1.6011437315
 H          8.3483451376        3.9823205852        0.5049240867
 H          6.6251917883        2.7795584414       -0.7940603214
 H          4.3600279341        3.7082420643       -1.0019211541
 H          1.5507704204        7.3841912155        1.2038225978
 H          1.2325221847        9.8136009389        1.0022364136
 H          2.8129482966       11.1680938383       -0.3272920565
 H          4.7121814538       10.0677907132       -1.4594909301
 H          5.0233725300        7.6359778856       -1.2728597038
 H          3.2258661311        3.7170717324        1.4722311597
 H          1.2945772497        2.2156636623        1.4479128654
 H         -2.4659617363        4.0413038553        0.0555605631
 H         -4.3628354401        2.5172668981        0.0169590532
 H         -5.6760287305        1.4799267290       -2.2146626738
 H         -7.0235522325        3.5354055470       -2.4785851007
 H         -8.4547462005        4.3168684791       -0.6269198394
 H         -8.5386747992        3.0484429413        1.4870406150
 H         -7.1918827284        0.9929408812        1.7490334099
 H         -8.2397703783       -0.1050985153       -1.2477081093
 H        -10.5939667182       -0.7616018857       -1.1210956671
