  66
        -88.22027263
 C         -8.4191727084        2.1110432422       -0.5813317995
 C         -7.1308604017        2.6860384077        0.0248858627
 C         -7.3817980432        3.0939663172        1.4840392704
 C         -6.7531047243        3.9427635373       -0.7638451123
 C         -6.0457142420        1.6238791944       -0.0100812951
 C         -6.2439031230        0.4113883616        0.6521194671
 C         -5.2888876461       -0.5801900134        0.6511574065
 C         -4.0680079009       -0.4090825370       -0.0115503255
 C         -3.0484407701       -1.4484596053       -0.0147615682
 C         -3.4094327964       -2.8066562890       -0.0062482633
 C         -2.4749713987       -3.8188699541       -0.0198728040
 C         -1.1283900031       -3.4631045570       -0.0333916934
 N         -0.0080222186       -4.2481042899       -0.0456745928
 C          1.1085407897       -3.4692554671       -0.0520098125
 C          2.4725700839       -3.8211536706       -0.0672532374
 C          3.3997017186       -2.8269189978       -0.0614588627
 C          3.0606079195       -1.4235996704       -0.0463633129
 C          4.0455545137       -0.4225039519       -0.0282104653
 C          5.4384197901       -0.6997673428        0.1857311095
 C          6.3771620381        0.2860427877        0.2149823618
 C          6.0529375872        1.6466536703        0.0282165298
 C          7.1414188173        2.6947337600        0.0716986463
 C          8.1657236203        2.4028581553       -1.0369897234
 C          6.6053258975        4.1139499158       -0.1339104494
 C          7.8406547467        2.6415350329        1.4400052275
 C          4.6962046350        1.9395318946       -0.1940798479
 C          3.7379032323        0.9681032995       -0.2178093023
 C          1.6470937965       -1.0991850059       -0.0463560845
 C          0.7176551552       -2.0950628992       -0.0439162569
 C         -0.7339743063       -2.0990528315       -0.0343480359
 C         -1.6814745781       -1.1045439153       -0.0297234633
 C         -3.8684080825        0.8069720205       -0.6719987677
 C         -4.8339282009        1.7927061903       -0.6733952834
 H         -9.2058305744        2.8625730323       -0.5712124937
 H         -8.7675469457        1.2461716733       -0.0241227341
 H         -8.2454354306        1.8061018977       -1.6112020134
 H         -8.1468291379        3.8661181565        1.5314795205
 H         -7.7136168288        2.2478400808        2.0792314478
 H         -6.4677878249        3.4846882956        1.9268843636
 H         -5.8609010517        4.4088851174       -0.3524745902
 H         -6.5830772672        3.7094294177       -1.8123047529
 H         -7.5657455881        4.6642926665       -0.7073238722
 H         -7.1641922069        0.2360752450        1.1891763601
 H         -5.4749508537       -1.4918726580        1.1996976045
 H         -4.4573973961       -3.0654628514       -0.0208045946
 H         -2.7770550317       -4.8557403122       -0.0279435073
 H         -0.0086658628       -5.2563009768       -0.0426980649
 H          2.7678956064       -4.8601834699       -0.0898144694
 H          4.4403193694       -3.1031080170       -0.0979123097
 H          5.7573342445       -1.7142757273        0.3622638558
 H          7.4062104323        0.0091200614        0.3929932784
 H          8.6200384330        1.4249238138       -0.9061273099
 H          8.9548149391        3.1518158353       -1.0244490463
 H          7.6806552814        2.4261666074       -2.0105161505
 H          6.1307661816        4.2150164972       -1.1070975081
 H          5.8890428109        4.3758299600        0.6412641745
 H          7.4286334639        4.8239183231       -0.0857406670
 H          8.2980609760        1.6716853219        1.6126676951
 H          8.6184960615        3.4005028065        1.4924036144
 H          7.1217017611        2.8262868041        2.2353530448
 H          4.3883170799        2.9602621339       -0.3570604274
 H          2.7209043539        1.2626175929       -0.4187963327
 H          1.3265095736       -0.0724786696       -0.0136716345
 H         -1.3842616150       -0.0677924410       -0.0059324215
 H         -2.9529212204        0.9702340456       -1.2214635088
 H         -4.6263223305        2.7048209253       -1.2093844622
