  81
       -130.08612280
 N          1.5264373101        2.9176071213       -0.1116983509
 C          2.3623744979        2.1355072551       -0.2091149143
 C          3.3883462816        1.1752858129       -0.2408650524
 C          4.7516082534        1.5358376277       -0.3040433166
 C          5.2035868725        2.9096920822       -0.5437310561
 C          4.5104867552        3.7770956557       -1.3841973617
 C          4.9782412966        5.0616433475       -1.5906135283
 C          6.1363531636        5.4927506363       -0.9651767482
 C          6.8388445318        4.6292468570       -0.1395412521
 C          6.3804068571        3.3431763437        0.0657563182
 N          5.6998869197        0.6287325089       -0.1294078080
 C          5.3471287719       -0.6326062910        0.0969489225
 C          6.4103269204       -1.6056428884        0.3394585730
 C          6.0967276294       -2.9468913577        0.5559615602
 C          7.1032619209       -3.8632111817        0.7897382397
 C          8.4273446095       -3.4525960644        0.8099173545
 C          8.7447931144       -2.1206669604        0.5923734015
 C          7.7437080567       -1.1986889082        0.3572056867
 N          4.0925294208       -1.0716186519        0.1047364726
 C          3.1130880450       -0.1995757288       -0.0737486598
 C          1.7523035629       -0.7388146023       -0.0674851188
 C          1.4523672949       -1.7955639252        0.7920268684
 C          0.1829314522       -2.3306396410        0.8295525763
 C         -0.8084809628       -1.8314062846       -0.0137767504
 N         -2.0867703750       -2.3950826333       -0.0079168698
 C         -2.3250918636       -3.7326061691       -0.2869104062
 C         -1.4311278816       -4.7846532433       -0.4126417565
 C         -1.9412073764       -6.0317903369       -0.7225636936
 C         -3.3054895505       -6.2313964590       -0.9166269563
 C         -4.1957273870       -5.1804949452       -0.8243591617
 C         -3.7055262698       -3.9191019788       -0.5126895675
 C         -4.3210375259       -2.6303795335       -0.3764038528
 C         -5.6404964000       -2.2184859565       -0.5574693570
 C         -5.9623244943       -0.8908397240       -0.4010716555
 C         -4.9652110480       -0.0051306455        0.0076254043
 C         -3.6171878867       -0.3862617367        0.2274933678
 C         -2.9330428942        0.7938324830        0.6894286474
 C         -1.6669482485        1.0585736621        1.2053674762
 C         -1.3501124713        2.3472458304        1.5837700635
 C         -2.2825479352        3.3766480387        1.4947593700
 C         -3.5661088110        3.1342742200        1.0489196305
 C         -3.8814073697        1.8445538431        0.6475027499
 N         -5.0989547766        1.3460783915        0.2375269888
 C         -6.2849157524        2.0875887658        0.1283558887
 C         -7.4318732527        1.6815935848        0.8038845815
 C         -8.5964179329        2.4180923351        0.6905288359
 C         -8.6246079420        3.5661679673       -0.0836655594
 C         -7.4815666503        3.9759994011       -0.7497648975
 C         -6.3151953757        3.2402060990       -0.6508552185
 C         -3.2925372675       -1.7187328820       -0.0465763456
 C         -0.5045318074       -0.7946897170       -0.8956121232
 C          0.7613624270       -0.2481948110       -0.9158981514
 H          3.6190695100        3.4448314680       -1.8946742208
 H          4.4362997976        5.7279388018       -2.2449990470
 H          6.4946540607        6.4987865001       -1.1260661882
 H          7.7460834627        4.9607450855        0.3438089505
 H          6.9153970936        2.6593493468        0.7068835424
 H          5.0615171797       -3.2489078253        0.5322391821
 H          6.8584801529       -4.9020100981        0.9561876267
 H          9.2125166124       -4.1713397367        0.9936040137
 H          9.7771540685       -1.8035398965        0.6065097790
 H          7.9727475787       -0.1593209682        0.1811427968
 H          2.2263127764       -2.1714586954        1.4434833162
 H         -0.0573592125       -3.1207010463        1.5248652126
 H         -0.3687539681       -4.6408965071       -0.2869840609
 H         -1.2651236893       -6.8683762782       -0.8201691996
 H         -3.6659228009       -7.2214388639       -1.1536189455
 H         -5.2513074127       -5.3300598790       -0.9940925248
 H         -6.3939049257       -2.9384959007       -0.8367372202
 H         -6.9646658765       -0.5363752641       -0.5841736326
 H         -0.9432918981        0.2726702833        1.3396361087
 H         -0.3615072859        2.5604692242        1.9596066628
 H         -2.0042803767        4.3734814919        1.8014938413
 H         -4.3083803416        3.9181924153        1.0292919539
 H         -7.3989460316        0.7986126530        1.4246011027
 H         -9.4838196641        2.0986029338        1.2167626773
 H         -9.5348576023        4.1407522689       -0.1664376392
 H         -7.5000651903        4.8694767289       -1.3561324687
 H         -5.4263135918        3.5448627367       -1.1828366116
 H         -1.2698862522       -0.4220338032       -1.5587524958
 H          0.9862358620        0.5427923733       -1.6150283043
