32
 energy: -55.322075547297 gnorm: 0.000034568793 xtb: 6.7.1 (edcfbbe)
C            5.02728950027542       -0.69402395934530       -0.00508868496952
C            5.02734553174662        0.69365805650209        0.00001434407860
C            3.83328393171737        1.39255072038050        0.00151337151748
C            2.61139093704412        0.72464767928732       -0.00155270482681
N            1.43881524130301        1.35719342215317       -0.00101949832877
C            0.28131711764204        0.71691717491527       -0.00238671436020
C           -0.95982668228910        1.41359868503266       -0.00228355747158
C           -1.00318247050414        2.81946148675196       -0.00360979546018
C           -2.21743629518518        3.45664618550913       -0.00366152365866
C           -3.38121958308723        2.67314588790049       -0.00220331009927
N           -3.36563935656980        1.36602629618431       -0.00091829376693
C           -2.19829251364296        0.71981869296875       -0.00099298586712
C           -2.19834576903438       -0.71961786681479        0.00036794583184
N           -3.36573080625375       -1.36573897456034        0.00394806395005
C           -3.38140844606492       -2.67285417476312        0.00512048674420
C           -2.21768970418348       -3.45644121486014        0.00237201731324
C           -1.00339411733635       -2.81934836988036       -0.00121127838887
C           -0.95993388202725       -1.41349048028715       -0.00194288610995
C            0.28126060989194       -0.71690214777026       -0.00391916662762
N            1.43870742962905       -1.35726571498605       -0.00635493597728
C            2.61133251721415       -0.72481222598238       -0.00555866837262
C            3.83317085445103       -1.39281665863711       -0.00776132047825
H            5.96047434133176       -1.23564453644228       -0.00670791066672
H            5.96057402614301        1.23520090904354        0.00265774293935
H            3.81834827359124        2.47157800130423        0.00504446395035
H           -0.06733848439540        3.35969490371562       -0.00471121129131
H           -2.28647315055943        4.53269199060561       -0.00482604716965
H           -4.36133160776918        3.13150193846090       -0.00215908096943
H           -4.36155098294687       -3.13113503516103        0.00856421510203
H           -2.28680867306070       -4.53248136476443        0.00327796008472
H           -0.06759251991170       -3.35965122234525       -0.00327759243899
H            3.81814376794428       -2.47184248295079       -0.01127157897840
