32
 energy: -55.373328509132 gnorm: 0.000150557386 xtb: 6.7.1 (edcfbbe)
C            4.98863917352851       -0.70465491414055       -0.00523745393988
C            4.98866376920864        0.70450279892114        0.00564820703591
C            3.81702846454435        1.40595022591778        0.00999332727065
C            2.58620394783218        0.71410976154393        0.00397709963896
N            1.43272616130902        1.39941198314493        0.00562386074031
C            0.30452764945421        0.71486355928864        0.00126324211855
C           -0.95197942238820        1.43111350591603       -0.00018802544144
C           -0.99586758757955        2.82956490630600       -0.00101815953290
C           -2.22047688490568        3.46083742665869       -0.00422557130534
C           -3.36917076753885        2.66835304674537       -0.00668712077296
N           -3.34907885645111        1.35520095568056       -0.00525522216227
C           -2.17280918854067        0.72773272501138       -0.00180878761538
C           -2.17283375832092       -0.72764268562385        0.00030731249287
N           -3.34912372684654       -1.35507326035519        0.00378723609081
C           -3.36925559828971       -2.66822434289861        0.00563402272255
C           -2.22058549493256       -3.46074559827088        0.00366054427971
C           -0.99595696170440       -2.82951184159227        0.00027020517905
C           -0.95202684291393       -1.43106212568380       -0.00108872257254
C            0.30450359728622       -0.71485240209535       -0.00256333963656
N            1.43267990632302       -1.39943875607627       -0.00675366669429
C            2.58618029812673       -0.71417760009523       -0.00479179661835
C            3.81698085228162       -1.40606776402678       -0.01025903539393
H            5.93261501400256       -1.22883367999641       -0.00925199313432
H            5.93266736014611        1.22866070320580        0.01013096080295
H            3.79443699517153        2.48476530476896        0.01768777505208
H           -0.06622150916369        3.37813370627365        0.00056078350418
H           -2.29562886875544        4.53676639314157       -0.00516845169255
H           -4.35500841852019        3.11553358843183       -0.01014181646372
H           -4.35510921063518       -3.11537416344538        0.00918199879323
H           -2.29576961837929       -4.53667158133999        0.00513425649037
H           -0.06632713364207       -3.37810836937649       -0.00104090813823
H            3.79435151911014       -2.48488616808022       -0.01801576323788
