32
 energy: -55.373329263066 gnorm: 0.000011869959 xtb: 6.7.1 (edcfbbe)
C            4.79627745638602       -0.70463520307256       -0.00001638868426
C            4.79628404667134        0.70459044903175       -0.00001696852620
C            3.62463383365877        1.40605748599279       -0.00001352709251
C            2.39380481122407        0.71416035265297       -0.00000909138500
N            1.24027463714152        1.39943582469292       -0.00000585497095
C            0.11203385276590        0.71486403346615       -0.00000098593317
C           -1.14447741948884        1.43113008345661        0.00000188566412
C           -1.18841424781268        2.82961960241758       -0.00000049487777
C           -2.41304564209377        3.46088995526818        0.00000199399703
C           -3.56172162125691        2.66838194087880        0.00000674613879
N           -3.54158080394311        1.35517900602148        0.00000913616816
C           -2.36527956337229        0.72770285357306        0.00000692727031
C           -2.36528634988011       -0.72768070924961        0.00000963142543
N           -3.54159343284750       -1.35514591109926        0.00001441240420
C           -3.56174647463808       -2.66834865745041        0.00001687959887
C           -2.41307787177154       -3.46086736936073        0.00001503707330
C           -1.18844059992471       -2.82960841949644        0.00000987988961
C           -1.14449076338753       -1.43111930960757        0.00000692400280
C            0.11202717703532       -0.71486496658354        0.00000115552901
N            1.24026155996525       -1.39944729942975       -0.00000247571261
C            2.39379813585808       -0.71418260847903       -0.00000788788928
C            3.62462067708575       -1.40609126828740       -0.00001178223533
H            5.74023620269457       -1.22885406670343       -0.00001964384969
H            5.74024770182039        1.22880047480960       -0.00002149879382
H            3.60201454198218        2.48491327055794       -0.00001451534687
H           -0.25879174246258        3.37824393953196       -0.00000433412485
H           -2.48821422900486        4.53680041587799        0.00000062524039
H           -4.54761723255635        3.11546612604401        0.00000946886843
H           -4.54764625321270       -3.11542365914063        0.00002130357145
H           -2.48825646957460       -4.53677713175972        0.00001758928413
H           -0.25882318668133       -3.37824139309817        0.00000818655459
H            3.60199126963253       -2.48494684146249       -0.00001033326704
