  78
       -117.93923560
 C          0.7983726861        2.5436629016        2.0266402168
 C          1.6592084207        3.3637989353        1.0538289845
 C          2.9441319398        3.7876290100        1.7865291450
 C          0.9434341315        4.6613782964        0.6158604799
 C         -0.0481162811        4.5672356770       -0.5625296657
 C         -1.3755652243        3.9558409838       -0.1508245082
 C         -2.3826010995        4.7638655901        0.3657251310
 C         -3.5988617207        4.2238356790        0.7525757353
 C         -3.8268875485        2.8659081939        0.6413562026
 C         -2.8224554449        2.0441978468        0.1373242084
 C         -3.0038651418        0.5955729780        0.0536019129
 N         -1.9088408932       -0.1444460696       -0.0924707713
 C         -2.0947407736       -1.4599613118       -0.1324505062
 C         -0.9118776619       -2.3136680852       -0.2354390282
 C         -1.0531912554       -3.6846962556       -0.4416983765
 C          0.0657111505       -4.4904948117       -0.5224571027
 C          1.3304829557       -3.9379361361       -0.3900541123
 C          1.4761215381       -2.5754675827       -0.1815438167
 C          0.3621255347       -1.7619281460       -0.1095694459
 N         -3.2901949153       -2.0411273934       -0.0740668849
 C         -4.3308972458       -1.2243297015        0.0595209829
 C         -5.6663009982       -1.8193100941        0.1214455007
 C         -6.7947816426       -1.0034940660        0.1735279677
 C         -8.0538453434       -1.5687448894        0.2289112280
 C         -8.1977879001       -2.9476096272        0.2340714864
 C         -7.0780203936       -3.7632816999        0.1836495955
 C         -5.8160602944       -3.2045950741        0.1270614533
 N         -4.2335795826        0.1003192072        0.1450587960
 C         -1.6108596448        2.5958290438       -0.2682252769
 C          0.5511594643        3.8202435046       -1.7044729537
 C          1.4800896808        2.8526137009       -1.4357010383
 N          2.0355445877        1.9767729149       -2.3495084424
 C          2.8515487254        1.1003412097       -1.7019100587
 C          3.5850708299        0.0503493538       -2.2372649238
 C          4.3382390096       -0.7015019726       -1.3455784955
 C          4.3388321884       -0.3973130804        0.0590362558
 C          3.6099404701        0.6471739007        0.5786134658
 C          2.8503298630        1.4308937800       -0.3079751975
 C          2.0027202253        2.5472736385       -0.1543590065
 C          5.1880474561       -1.3758290068        0.6951171269
 C          5.5491669112       -1.5765786648        2.0129939389
 C          6.3969267175       -2.6295709842        2.3233072038
 C          6.8858867986       -3.4833957956        1.3300990404
 C          6.5413747427       -3.3072530946        0.0097285724
 C          5.6853196129       -2.2494456983       -0.3316141938
 C          5.1697129684       -1.8364224608       -1.5656475999
 H          0.5935070930        3.1234381820        2.9248501384
 H          1.3219131250        1.6349636902        2.3136662050
 H         -0.1469447174        2.2618966277        1.5740201262
 H          3.4364738546        2.9324867421        2.2377397513
 H          2.7046989192        4.4985488998        2.5750308004
 H          3.6420985907        4.2560654236        1.0958005824
 H          0.4242277375        5.0843322621        1.4783214314
 H          1.7156012787        5.3727625494        0.3113304120
 H         -0.2629631964        5.5958510584       -0.8803042799
 H         -2.2148312252        5.8275057912        0.4640129914
 H         -4.3701439231        4.8701357232        1.1455997170
 H         -4.7631108030        2.4256993309        0.9460638968
 H         -2.0457885898       -4.0964621271       -0.5370142927
 H         -0.0454858635       -5.5528551061       -0.6845274231
 H          2.2059596193       -4.5684156095       -0.4464652670
 H          2.4607311699       -2.1492065030       -0.0721942315
 H          0.4613987687       -0.7000064150        0.0542678897
 H         -6.6618945863        0.0670408505        0.1658719198
 H         -8.9283944180       -0.9357324802        0.2676165715
 H         -9.1838795078       -3.3868822117        0.2772001738
 H         -7.1927529305       -4.8374407629        0.1876910795
 H         -4.9325392293       -3.8222457865        0.0899567241
 H         -0.8602692033        1.9374843027       -0.6766068012
 H          0.1647280852        3.9791240306       -2.6982177564
 H          1.8205833786        1.9587559109       -3.3315673935
 H          3.5635682278       -0.1725845576       -3.2939862169
 H          3.6141549619        0.8464567407        1.6383647920
 H          5.1800515029       -0.9258341942        2.7926398229
 H          6.6878556648       -2.7962901522        3.3503376340
 H          7.5446703290       -4.2924257198        1.6113597784
 H          6.9191759512       -3.9678888839       -0.7573818370
 H          5.3588971686       -2.2936684017       -2.5196610677
