  100
       -152.58965044
 C         -5.7174644773        5.2173561470       -0.2362071294
 C         -4.2388537055        5.4612695029       -0.5705865011
 C         -4.1031737974        5.9153699227       -2.0308509258
 C         -3.7229760372        6.5883940623        0.3281068188
 C         -3.4748651864        4.1617109767       -0.3779299382
 C         -2.4393374321        4.0177215622        0.5370623893
 C         -1.7844929037        2.8101168928        0.6997255198
 C         -2.1475831069        1.7052337833       -0.0592241584
 N         -1.4721746981        0.4912076336        0.1057116841
 C         -2.0061402047       -0.7848371323        0.0131903505
 C         -3.4314746894       -1.0520818050        0.0459471419
 C         -4.3027760313       -0.2772446668        0.8166330498
 C         -5.6526773666       -0.5469808585        0.8421153146
 C         -6.1852038546       -1.6117334290        0.1142659819
 C         -7.6196216084       -1.8963271562        0.1433015528
 C         -8.1171713648       -3.1811337068        0.0957453050
 C         -9.4928606943       -3.4680174028        0.1260198564
 C        -10.4365853488       -2.4806287708        0.1998408922
 C         -9.9855773962       -1.1521816542        0.2452876973
 N        -10.7327956598       -0.0473564010        0.3064234381
 S         -9.7597714378        1.2296665676        0.3248528950
 N         -8.3509910459        0.4615825805        0.2606994743
 C         -8.5764766505       -0.8530652819        0.2235696372
 C         -5.3124802406       -2.4018779443       -0.6355616234
 C         -3.9626230795       -2.1265093400       -0.6710078994
 C         -0.9884913809       -1.7266504294        0.0258644680
 C          0.2073507505       -1.0050486388        0.1465779610
 C         -0.1119783194        0.3607552440        0.1826437535
 C          1.0875214981        1.0846825732        0.2311422590
 C          2.1055993005        0.1432620706        0.2432815876
 C          3.5183397490        0.4121571390        0.4331061332
 C          4.3247742702       -0.4154807010        1.2188690826
 C          5.6547187696       -0.1176762129        1.4192951659
 C          6.2332185514        1.0154176157        0.8448489374
 C          7.6434815137        1.3315106686        1.0722571806
 C          8.2703790004        1.0628063299        2.2705614608
 C          9.6232074435        1.3605898439        2.5082383932
 C         10.4155169960        1.9375280914        1.5540899061
 C          9.8291761660        2.2309318604        0.3131213972
 N         10.4212382863        2.7820633477       -0.7491130503
 S          9.3416983640        2.9075961468       -1.9306957614
 N          8.0753632946        2.2794394152       -1.1691600180
 C          8.4401594442        1.9367967187        0.0676922586
 C          5.4279512033        1.8430583532        0.0618925294
 C          4.0960977220        1.5502490293       -0.1342655103
 N          1.5698617447       -1.1344019143        0.1896328767
 C          2.2541031788       -2.3379319609       -0.0076711897
 C          3.3497879736       -2.4144896775       -0.8627463108
 C          3.9907246487       -3.6198360702       -1.0565514655
 C          3.5644261853       -4.7887323248       -0.4285319559
 C          4.3050644991       -6.0903712877       -0.6886327173
 C          4.2369429951       -6.4119248209       -2.1883472133
 C          3.7093556374       -7.2725580981        0.0804835514
 C          5.7694205956       -5.9274454622       -0.2577620785
 C          2.4611647369       -4.6984889091        0.4111011566
 C          1.8139196092       -3.4947023788        0.6227748426
 C         -3.1645924169        1.8412104436       -0.9998731826
 C         -3.8169376760        3.0473103556       -1.1416912714
 H         -6.2863618313        6.1362134743       -0.3603844064
 H         -5.8184702548        4.8842225070        0.7946167678
 H         -6.1485506608        4.4572570976       -0.8814730924
 H         -4.6278115558        6.8565303537       -2.1802624057
 H         -3.0548827325        6.0605251824       -2.2834404087
 H         -4.5199972124        5.1818598112       -2.7148474493
 H         -4.3021949002        7.4911222628        0.1455891634
 H         -2.6796363721        6.8105015356        0.1166700940
 H         -3.8276142220        6.3299985135        1.3790901958
 H         -2.1276973494        4.8475367089        1.1497196567
 H         -0.9947904666        2.7158552472        1.4298166197
 H         -3.9128641701        0.5355749432        1.4103143488
 H         -6.3087142144        0.0641983408        1.4407727794
 H         -7.4241608850       -4.0082926400        0.0575439876
 H         -9.8032060533       -4.5019040189        0.0944666855
 H        -11.4935113957       -2.6896411439        0.2243058924
 H         -5.7028042681       -3.2193099739       -1.2242871188
 H         -3.3052343225       -2.7322946794       -1.2771781354
 H         -1.1227735932       -2.7894358911       -0.0075574528
 H          1.2201875531        2.1463305058        0.2923993400
 H          3.9002701984       -1.2916281740        1.6857004115
 H          6.2607749531       -0.7846623250        2.0148633682
 H          7.6960296775        0.6250909527        3.0734658810
 H         10.0388118589        1.1256031432        3.4770331897
 H         11.4540567364        2.1688899287        1.7252791039
 H          5.8570006636        2.7229042840       -0.3902665438
 H          3.4880261722        2.1987542875       -0.7472133778
 H          3.6932798637       -1.5286060098       -1.3741975897
 H          4.8379633014       -3.6433675056       -1.7243160303
 H          3.2003621633       -6.5027095192       -2.5063001517
 H          4.7448282844       -7.3517760903       -2.3936044886
 H          4.7080386378       -5.6336398149       -2.7818740058
 H          3.7544041758       -7.1038516951        1.1538701679
 H          4.2784009916       -8.1728690966       -0.1418946458
 H          2.6765106264       -7.4483181516       -0.2108673622
 H          5.8243803426       -5.6822301686        0.8008737458
 H          6.3148663914       -6.8534268192       -0.4265848008
 H          6.2609143452       -5.1358765928       -0.8161560369
 H          2.0870237311       -5.5699293659        0.9225819761
 H          0.9664679367       -3.4451230016        1.2896950060
 H         -3.4421427361        0.9994388502       -1.6150891309
 H         -4.6077909893        3.1144955995       -1.8724117653
