  42
  -76.9677075800000       0.649740338968043      !
 N          8.1078447518        0.7038625558        0.1885604636
 C          6.9603206467        0.7265855067        0.1325490301
 C          5.5546908313        0.7557575320        0.0792885525
 C          5.0121190689        2.0413315058       -0.0793770769
 N          4.6189887665        3.1013267825       -0.2877626637
 C          4.8525514026       -0.4346489832        0.0468371233
 C          3.4536383099       -0.6201255226        0.0699197148
 C          2.8859941536       -1.8235265819       -0.4332593541
 F          3.7329213699       -2.7517827957       -0.9225869882
 C          1.5494468572       -2.0750372420       -0.4930574593
 C          0.6140207571       -1.1093823858       -0.0445240534
 C         -0.7903595547       -1.3388274305       -0.1133833622
 C         -1.3002325745       -2.6517259658        0.0320249235
 C         -2.6238921678       -2.8888984945        0.2389540337
 C         -3.5698886459       -1.8237860550        0.2726974478
 C         -4.9268340361       -2.0448851907        0.5355742203
 C         -5.8300373304       -1.0055268640        0.5325070819
 C         -5.4193684891        0.3054870970        0.2221474987
 C         -6.3280861223        1.3839821569        0.1786409250
 C         -5.9015291256        2.6586606092       -0.1493516198
 C         -4.5778481621        2.9008498753       -0.4539056235
 C         -3.6276238982        1.8542186814       -0.4202618434
 C         -2.2795562019        2.0519214549       -0.7617219927
 C         -1.3677099553        1.0191216104       -0.6912845746
 C         -1.7396693571       -0.2577448409       -0.2464871810
 C         -3.1140830294       -0.5090613531       -0.0029851894
 C         -4.0512436009        0.5487093763       -0.0644198036
 C          1.1465579252        0.0616418917        0.5488467961
 C          2.4919108228        0.2741232922        0.6119421461
 F          2.9220865364        1.3380026212        1.3127041477
 H          5.4477898647       -1.3342173589       -0.0597892410
 H          1.2192217193       -2.9929303825       -0.9514919519
 H         -0.6052384064       -3.4760377871        0.0738068184
 H         -2.9778157850       -3.8945199271        0.4117854125
 H         -5.2604651898       -3.0513265336        0.7430963403
 H         -6.8708663469       -1.1878483716        0.7555413114
 H         -7.3682224890        1.1976609822        0.4003577012
 H         -6.6146043422        3.4692345523       -0.1769312751
 H         -4.2496024182        3.8929966856       -0.7246715370
 H         -1.9587950730        3.0297655261       -1.0885905443
 H         -0.3526732730        1.1942992977       -1.0129318805
 H          0.4935033076        0.7642155450        1.0423061071
  42
  -76.9665099400000       0.182954288973679      !
 N          8.1401503474        0.7099217506       -0.3790937948
 C          7.0258238265        0.6797324672       -0.1006171774
 C          5.6559179306        0.6473954801        0.2236326916
 C          5.3094372595        1.5031401031        1.2822779755
 N          5.1083327008        2.1674418853        2.1983718377
 C          4.8416923155       -0.2741225334       -0.4054525580
 C          3.4417727879       -0.4389010535       -0.3091904343
 C          2.8561258045       -1.6878672209       -0.6574514096
 F          3.6814922063       -2.6655934858       -1.0834236221
 C          1.5274221958       -1.9673718728       -0.5577042520
 C          0.6080235081       -0.9635162040       -0.1666647591
 C         -0.7871802219       -1.2402292742       -0.0576221961
 C         -1.2120503697       -2.5146706984        0.3876051898
 C         -2.5001772552       -2.7544801672        0.7550857199
 C         -3.4971837711       -1.7402995089        0.6606795172
 C         -4.8158617356       -1.9560975765        1.0761204457
 C         -5.7722423374       -0.9729120714        0.9467657412
 C         -5.4580294442        0.2641294311        0.3524635916
 C         -6.4249521660        1.2772032250        0.1762248928
 C         -6.0943254605        2.4761676717       -0.4299484074
 C         -4.8130320611        2.7024836971       -0.8888839075
 C         -3.8077143439        1.7196670117       -0.7333217880
 C         -2.5040183843        1.8944330680       -1.2248632716
 C         -1.5350230380        0.9310958855       -1.0331852400
 C         -1.8000234562       -0.2420757654       -0.3128312116
 C         -3.1356622301       -0.4907222411        0.0947160034
 C         -4.1308352500        0.4970008325       -0.0922802107
 C          1.1471768177        0.3083868504        0.1386361631
 C          2.4912238712        0.5412609935        0.0775310038
 F          2.9117598120        1.7924148590        0.3295689554
 H          5.3527780800       -1.0014359391       -1.0264331502
 H          1.1835079657       -2.9468303933       -0.8487672664
 H         -0.4708326270       -3.2859980701        0.5298400165
 H         -2.7837151682       -3.7165343494        1.1554980700
 H         -5.0782617061       -2.9131730765        1.5031472066
 H         -6.7817548850       -1.1472064092        1.2883789390
 H         -7.4333857131        1.0996421952        0.5189111186
 H         -6.8496505192        3.2384532005       -0.5519707268
 H         -4.5604060882        3.6326044656       -1.3752463438
 H         -2.2639136930        2.7977643290       -1.7657407795
 H         -0.5602459522        1.0742601788       -1.4731951470
 H          0.5085743118        1.1048325005        0.4858159081
  42
  -76.9660354300000       0.110731937202747      !
 N          8.1710729018        0.3784873270       -0.3173193790
 C          7.0525978891        0.5285292741       -0.1006420093
 C          5.6776674901        0.7050254870        0.1571480586
 C          5.4239182535        1.9306090785        0.7913181221
 N          5.3492395603        2.9500142472        1.3180970606
 C          4.8269499317       -0.3241913684       -0.2104552844
 C          3.4287793907       -0.4715132698       -0.1325581932
 C          2.8512981613       -1.7152058570       -0.5311935770
 F          3.6865938045       -2.6799393561       -0.9682106191
 C          1.5213378069       -1.9983058371       -0.5003937459
 C          0.5822580260       -1.0136489579       -0.1047759254
 C         -0.8158275799       -1.2860243113       -0.0739985934
 C         -1.2694276066       -2.5867205122        0.2539878151
 C         -2.5730074717       -2.8391345235        0.5512148358
 C         -3.5554954609       -1.8092140437        0.5012744439
 C         -4.8913907321       -2.0404552041        0.8516237726
 C         -5.8314318852       -1.0386133784        0.7689387759
 C         -5.4832628454        0.2392969280        0.2883230278
 C         -6.4315071537        1.2759996490        0.1642325295
 C         -6.0670689082        2.5157484973       -0.3304793794
 C         -4.7685157975        2.7603576901       -0.7276689341
 C         -3.7809726503        1.7549011442       -0.6198744959
 C         -2.4586424723        1.9501343757       -1.0532608146
 C         -1.5078585641        0.9627583879       -0.9063050561
 C         -1.8096723709       -0.2605418763       -0.2894208952
 C         -3.1614648416       -0.5235582660        0.0496662213
 C         -4.1391612402        0.4890915920       -0.0912079470
 C          1.1140438453        0.2322839242        0.3056498371
 C          2.4571524156        0.4721443622        0.3005812138
 F          2.8579753978        1.6790998368        0.7296049906
 H          5.3395443796       -1.1808188463       -0.6348365477
 H          1.1946578939       -2.9642263975       -0.8503245300
 H         -0.5422073324       -3.3763802500        0.3630001183
 H         -2.8805058792       -3.8267533025        0.8618068209
 H         -5.1779656352       -3.0253133899        1.1910311565
 H         -6.8544961099       -1.2260152549        1.0596606760
 H         -7.4530667463        1.0854099418        0.4576653733
 H         -6.8093170184        3.2956188899       -0.4153711367
 H         -4.4894574333        3.7232489712       -1.1283172691
 H         -2.1912597687        2.8897780216       -1.5134015484
 H         -0.5174378840        1.1263622224       -1.3018980965
 H          0.4656111798        0.9972211634        0.7028123784
  42
  -76.9654007900000       5.657343485553063E-002 !
 N          8.0627513252        0.7491004648        0.3638047325
 C          6.9155974528        0.6962154290        0.3963717487
 C          5.5098820857        0.6375533038        0.4307072002
 C          4.9281902533        1.4788495214        1.3952238934
 N          4.5057671218        2.1227807294        2.2482522806
 C          4.8418396133       -0.2988904972       -0.3316513091
 C          3.4424679878       -0.4675865808       -0.4493634816
 C          2.8985449672       -1.7412099836       -0.7686837615
 F          3.7638374450       -2.7352154986       -1.0538826380
 C          1.5677550537       -2.0287440163       -0.7454922418
 C          0.6145355270       -1.0143473635       -0.4768861701
 C         -0.7690644489       -1.3044000870       -0.3101311440
 C         -1.1643217978       -2.5453403948        0.2489254147
 C         -2.3987774465       -2.7210082758        0.7923900512
 C         -3.3670606505       -1.6733080919        0.7850750446
 C         -4.6021837396       -1.7936186806        1.4303264782
 C         -5.5292898578       -0.7748434005        1.3860555380
 C         -5.2833133953        0.3934012316        0.6392203473
 C         -6.2275954396        1.4378606026        0.5447145161
 C         -5.9678447347        2.5614834987       -0.2198875998
 C         -4.7827739079        2.6816780846       -0.9166021748
 C         -3.7978598793        1.6695030224       -0.8425990736
 C         -2.5879927618        1.7417258331       -1.5529887945
 C         -1.6196535505        0.7686123230       -1.4104381233
 C         -1.7998089925       -0.3180844582       -0.5447650087
 C         -3.0655662610       -0.4865223507        0.0693150575
 C         -4.0475507152        0.5239722378       -0.0453546877
 C          1.1175676793        0.2962797434       -0.2880437164
 C          2.4597330311        0.5392890818       -0.2679160820
 F          2.8580763973        1.8165456584       -0.1356652508
 H          5.4563398808       -1.0321243317       -0.8408114485
 H          1.2529595492       -3.0319222276       -0.9840386508
 H         -0.4307381976       -3.3310139936        0.3419818454
 H         -2.6531238185       -3.6505044940        1.2797955622
 H         -4.8205404707       -2.7003566286        1.9756192253
 H         -6.4667048544       -0.8695688448        1.9137826883
 H         -7.1633758305        1.3439393515        1.0751658941
 H         -6.7052356079        3.3483933738       -0.2784745724
 H         -4.5899791907        3.5524575706       -1.5249686213
 H         -2.4171108702        2.5781394290       -2.2143612268
 H         -0.7150991182        0.8338922951       -1.9960976342
 H          0.4504112375        1.1174214070       -0.0827516329
