45
 energy: -63.714421005499 gnorm: 0.000028851821 xtb: 6.7.1 (edcfbbe)
C            2.88510934660331       -1.56311418295978       -2.80201884751519
C            2.61378080047835       -2.22824774605657       -1.61760951353188
C            1.67069683835087       -1.72735334668107       -0.73980064823443
C            0.96565350912443       -0.56356434685438       -1.03516794597942
C           -0.00003798185882        0.00026377082573       -0.00018492013465
C           -0.96588766682901       -1.03616935708474        0.56070902364789
C           -1.26350144726024       -2.21252065438997       -0.11502735850885
C           -2.21011658337310       -3.09307227763029        0.38192905544119
C           -2.88524986067286       -2.80618676812566        1.55479897107865
C           -2.61781677025154       -1.62130794409618        2.22067295696495
C           -1.67480934529392       -0.74191535273582        1.72242361426159
C            0.96179465486897        0.56251445610143        1.03924765078014
C            1.67011747979528        1.72513502871799        0.74715340005085
C            2.60992579389308        2.22449388756220        1.62934538756156
C            2.87465977330899        1.55892690370011        2.81500325800231
C            2.20003202022581        0.38528536003027        3.09991130215894
C            1.25668441427622       -0.11282765718028        2.21651615262508
C           -0.96169838898533        1.03822284769112       -0.56541662838442
C           -1.26063523551439        2.21493080985687        0.10911838978560
C           -2.20393473551314        3.09678209720170       -0.39181765764170
C           -2.87442956486881        2.81087738025940       -1.56758306876457
C           -2.60558040142846        1.62577971485033       -2.23249634781810
C           -1.66586108654384        0.74510437198509       -1.73030599357348
C            1.26711838671282        0.11130023067206       -2.21104208131764
C            2.21373954385193       -0.38836876087867       -3.09004868297941
H            3.62214519890772       -1.95278287383629       -3.48906423030979
H            3.14368617869043       -3.13776090544851       -1.37303257987687
H            1.47934083849765       -2.24450592478598        0.18926504721570
H           -0.75594933176758       -2.45102300644825       -1.03811256672825
H           -2.42240387348877       -4.00609145419964       -0.15605023318083
H           -3.62218088416927       -3.49450178391206        1.94242115863542
H           -3.15069382222323       -1.37761435045169        3.12868798539214
H           -1.48652306786041        0.18750192589045        2.24006864724846
H            1.48395118277887        2.24257322282374       -0.18280534201571
H            3.14248513343107        3.13311504666808        1.38721688349204
H            3.60910577598032        1.94739328126879        3.50549443818851
H            2.41018796843843       -0.15242575770330        4.01358048038869
H            0.74956254880806       -1.03653564096276        2.45351317818924
H           -0.75675492811668        2.45266688585382        1.03441250666965
H           -2.41735740764275        4.01000733434918        0.14536017586108
H           -3.60887545369858        3.50013781246580       -1.95822720389396
H           -3.13485278843525        1.38289121401981       -3.14283233083793
H           -1.47649580610305       -0.18445782883588       -2.24729626961948
H            0.76263036642338        1.03585199157685       -2.45036723750625
H            2.42904969811079        0.14899103966771       -4.00272428918549
