45
 energy: -63.714281359971 gnorm: 0.000047003718 xtb: 6.7.1 (edcfbbe)
C            2.88971073639447       -3.04420153949874       -1.00307479348188
C            2.43773797886135       -2.16244690951053       -1.96988116185066
C            1.49248831291320       -1.20351412017308       -1.65222565525397
C            0.96720291376450       -1.11842272090748       -0.36719547153520
C           -0.00000493141322       -0.00000131590523       -0.00000010402512
C           -0.96734821173040        0.36719910940057       -1.11829485566371
C           -1.49263475146881        1.65223598159515       -1.20329785790383
C           -2.43793058119402        1.96993842619040       -2.16216888880460
C           -2.88996291015894        1.00316916837123       -3.04393362565429
C           -2.39783923745830       -0.28693810467115       -2.94723023500168
C           -1.45226119986256       -0.60349664474810       -1.98783589457601
C           -0.96724687424283       -0.36711153636323        1.11840737845162
C           -1.49266086087065       -1.65209248801370        1.20345393752111
C           -2.43791839291265       -1.96969540894285        2.16239385273286
C           -2.88976816631599       -1.00288350624286        3.04420570253399
C           -2.39751102861722        0.28717034514884        2.94746832406450
C           -1.45198354326742        0.60363323210220        1.98799308783733
C            0.96733705941174        1.11833341604340        0.36709768457210
C            1.49277064730263        1.20336604740475        1.65207247422079
C            2.43814853274218        2.16220348105951        1.96963185481607
C            2.89010241929196        3.04392075032096        1.00278243388420
C            2.39783400392137        2.94718670017753       -0.28726758421956
C            1.45217831568770        1.98782282221207       -0.60368196180095
C            1.45205502535886       -1.98796198150317        0.60353608905967
C            2.39758283921144       -2.94742060410974        0.28702528419515
H            3.62709478851642       -3.79388389836613       -1.25070353407804
H            2.82615373443950       -2.21669198424613       -2.97691261270037
H            1.16008012129897       -0.51533615485823       -2.41535269843730
H           -1.16014150588703        2.41534804256335       -0.51514496986516
H           -2.82640174060800        2.97695433591731       -2.21629808869042
H           -3.62748540447975        1.25080129468158       -3.79347849367566
H           -2.75510646787750       -1.05495680679102       -3.61837066639442
H           -1.08862643754985       -1.61812891186377       -1.91906225777726
H           -1.16034722503391       -2.41522199202947        0.51523280701375
H           -2.82648304803554       -2.97667386991816        2.21656172907478
H           -3.62720928002859       -1.25045376533868        3.79385177400857
H           -2.75459482894650        1.05520935796138        3.61868406446893
H           -1.08824128661406        1.61822597925653        1.91919733382189
H            1.16039920254373        0.51519664757311        2.41522335247859
H            2.82667382361393        2.21640967720047        2.97662364319591
H            3.62756090394571        3.79355238483427        1.25034396506852
H            2.75495579690899        3.61836274360466       -1.05532398876997
H            1.08845180411112        1.91900043116844       -1.61827865389253
H            1.08844146595677       -1.91909958182010        1.61817015829859
H            2.75474648838103       -3.61860452896441        1.05505512273412
