45
 energy: -63.600041392093 gnorm: 0.000040078196 xtb: 6.7.1 (edcfbbe)
C            2.75120496244110       -3.38420421472985       -0.00414849471161
C            2.32965318899291       -2.83200248453037        1.19437728375757
C            1.47475218514891       -1.74473690877192        1.19741513534932
C            1.02460541296888       -1.19981113754420       -0.00132131577591
C            0.14436568462706        0.00331115221299       -0.00014011436231
C           -1.17592929959071       -0.01853640547650        0.79814288876395
C           -1.53661107067173       -1.25176840423114        1.49964842888982
C           -2.15868546558623       -1.23662746629011        2.71058417567840
C           -2.50897805517272       -0.03684886759650        3.34101248783593
C           -2.20276664000819        1.17189579616403        2.70484788859566
C           -1.58149293458455        1.20398870122047        1.49381527198665
C            0.98132123742118        1.23690445186736       -0.00602306487468
C            1.40381767397113        1.79572764992813       -1.20841915636838
C            2.22226763020756        2.91065909338410       -1.21241023789313
C            2.63389131838783        3.47772123975684       -0.01738221785972
C            2.22582452587992        2.92019839295509        1.18331972555761
C            1.40752594900123        1.80514885510702        1.19061080660660
C           -1.18198947213111       -0.02218969083189       -0.78828898901518
C           -1.59119323016593        1.19725622287379       -1.48721969439516
C           -2.22137284135557        1.15971495563196       -2.69347138511497
C           -2.53408505166863       -0.05192664825963       -3.32093195994980
C           -2.18065611889301       -1.24887684829714       -2.68690860504381
C           -1.54930694832683       -1.25855886755181       -1.48070971811283
C            1.46174550685595       -1.75195681228440       -1.20157219614668
C            2.31661520783007       -2.83925081537786       -1.20131708106924
H            3.41728193827148       -4.23464621904187       -0.00519683887643
H            2.66783959616192       -3.24963921837231        2.13178650387508
H            1.14483264093159       -1.31712017646775        2.13292102033272
H           -1.27231915373296       -2.19531161697637        1.05139112147140
H           -2.39279621612179       -2.17513261628747        3.19414253822727
H           -3.01056433802843       -0.04377145140507        4.29531979063686
H           -2.47135808405337        2.10347887113064        3.18384998077363
H           -1.35249880315032        2.15440762350650        1.04069649441927
H            1.08159126252447        1.35646061628731       -2.14120078206399
H            2.53965145933822        3.33834832815382       -2.15255572871402
H            3.27161604115265        4.34960830779587       -0.02180664880248
H            2.54574276925002        3.35547680505056        2.11911758702855
H            1.08831482407672        1.37316567993042        2.12782131948852
H           -1.35693231817180        2.14970461082334       -1.04107575082120
H           -2.49214351132989        2.08915766773146       -3.17539142921929
H           -3.04290822642019       -0.06315842086111       -4.27135689670929
H           -2.41974408445806       -2.18956965729293       -3.16374340917820
H           -1.28314455639934       -2.20011464981966       -1.02941047843224
H            1.12174426006831       -1.32996164790665       -2.13602120092474
H            2.64449893034640       -3.26254785134184       -2.13985276710970
