  76
       -121.73025105
 C          0.0378331341       -6.6103223699       -1.8305791736
 C          1.2339205835       -5.9265532657       -1.6757986313
 C          1.2282347430       -4.5920146367       -1.3195466093
 C          0.0205782663       -3.9274451721       -1.1133627062
 C          0.0110523111       -2.5130027882       -0.7339382780
 N         -1.1703580106       -1.9276770217       -0.5667960761
 C         -1.1884805283       -0.6446298462       -0.2211840079
 C         -2.5138352280       -0.0369793190       -0.0364975646
 C         -2.7286844385        1.3201441381       -0.2482048279
 C         -3.9948731493        1.8694036837       -0.0759629105
 C         -4.2235624674        3.3012602344       -0.3196603847
 C         -5.3762678955        3.7504339136       -0.9623711661
 C         -5.5399712977        5.1098064609       -1.1677590975
 N         -4.6589595962        6.0187476956       -0.7850394169
 C         -3.5648318517        5.5967432446       -0.1743470238
 C         -3.2971192330        4.2625638286        0.0814696536
 C         -5.0438463584        1.0489505746        0.3254593415
 C         -4.8447695491       -0.3113293328        0.5386257761
 C         -5.9612744200       -1.1707326960        0.9586873525
 C         -6.1201222972       -2.4535334848        0.4368044499
 C         -7.1908882934       -3.2198393888        0.8648538763
 N         -8.0801694049       -2.8044392784        1.7512407249
 C         -7.9307215265       -1.5890104678        2.2499713787
 C         -6.9007426731       -0.7355479596        1.8919883103
 C         -3.5774592571       -0.8476037475        0.3459861701
 C         -0.0046782619        0.0660942198       -0.0281166737
 C          1.1883975944       -0.6263485000       -0.2289207461
 C          2.5092835625       -0.0068488535       -0.0509205251
 C          2.7040362420        1.3623566156       -0.1930115480
 C          3.9657223245        1.9187320004       -0.0107376684
 C          4.1675352962        3.3677865012       -0.1594244756
 C          3.5475787336        4.0871144248       -1.1798019148
 C          3.7742240819        5.4503273327       -1.2688695131
 N          4.5499623561        6.1190862625       -0.4327436081
 C          5.1391656944        5.4401954791        0.5372024512
 C          4.9860217031        4.0763361942        0.7190214615
 C          5.0354188133        1.0915072706        0.3148592004
 C          4.8601593341       -0.2829676524        0.4422335842
 C          5.9984539179       -1.1544848877        0.7678331333
 C          6.1479503073       -2.4009490816        0.1617189362
 C          7.2379276765       -3.1829019056        0.5040758971
 N          8.1547439778       -2.8154626945        1.3836206636
 C          8.0149051950       -1.6345514844        1.9615849967
 C          6.9672019470       -0.7698795451        1.6932292299
 C          3.5937642864       -0.8227841503        0.2560166674
 N          1.1840321086       -1.9088280954       -0.5796592670
 C         -1.1784241178       -4.6197693138       -1.2732587009
 C         -1.1668461904       -5.9543076893       -1.6297266294
 H          0.0448504759       -7.6540403754       -2.1087965620
 H          2.1718523946       -6.4384814917       -1.8350923864
 H          2.1500621252       -4.0445738879       -1.1985405097
 H         -1.9225734457        1.9498944775       -0.5944086413
 H         -6.1193116094        3.0503097891       -1.3124362479
 H         -6.4203465059        5.4948803609       -1.6655540961
 H         -2.8701656974        6.3708751123        0.1251633265
 H         -2.3956955963        3.9763918122        0.6017947573
 H         -6.0266674985        1.4737675724        0.4678289786
 H         -5.4324376889       -2.8353865456       -0.3018022897
 H         -7.3495499835       -4.2186232304        0.4794185443
 H         -8.6763562959       -1.2871046866        2.9740686489
 H         -6.8175704830        0.2408322627        2.3447230268
 H         -3.3914046437       -1.8966273458        0.5157346029
 H         -0.0135522156        1.0900459244        0.3059298541
 H          1.8765881053        2.0075046034       -0.4479400188
 H          2.9187669541        3.5890688081       -1.9020559743
 H          3.3130436259        6.0406288184       -2.0500981230
 H          5.7642567277        6.0232427496        1.2009183396
 H          5.4772819684        3.5750481375        1.5389007901
 H          6.0224088164        1.5167049000        0.4237263757
 H          5.4373661794       -2.7419809275       -0.5751552353
 H          7.3894879237       -4.1545948407        0.0522575121
 H          8.7835595769       -1.3718250838        2.6768494733
 H          6.8940077070        0.1757928604        2.2083608515
 H          3.4239866639       -1.8820395552        0.3693939648
 H         -2.1071852547       -4.0934747408       -1.1166734697
 H         -2.0981306786       -6.4878154397       -1.7521559125
