  55
        -92.53061225
 O          6.8234345887       -0.7572305154       -0.5133581452
 C          5.7342499096       -0.2797298443       -0.2435216368
 C          5.5637900412        1.1631274191        0.0435616202
 C          6.6870464757        1.9855468379        0.0211280055
 C          6.5782979936        3.3390815478        0.2841381506
 C          5.3388402834        3.8911083842        0.5725776200
 C          4.2147393536        3.0863480254        0.5957959331
 C          4.3113693506        1.7212816340        0.3344636022
 C          3.0826733216        0.9030372137        0.3686056399
 O          1.9834660780        1.3868456426        0.5732653226
 C          3.2625299936       -0.5456926825        0.1235382347
 C          2.1396743198       -1.3587714791        0.1870897774
 C          2.2378501791       -2.7192911122       -0.0687293309
 S          0.8510621505       -3.8035048715       -0.0004720552
 C         -0.5205202317       -2.6652924111       -0.0339927704
 C         -1.4678024538       -2.7110329059        0.9773592410
 C         -2.5279185694       -1.8257496482        0.9648135431
 C         -2.6471448181       -0.8890670926       -0.0604236847
 N         -3.6963280186        0.0295654016       -0.0632629462
 C         -5.0363371369       -0.2608821470        0.1165848845
 C         -5.6605065078       -1.4872800024        0.2910452375
 C         -7.0370014757       -1.4987833463        0.4163266223
 C         -7.7824093841       -0.3236508142        0.3603076801
 C         -7.1689839821        0.8968413701        0.1593981885
 C         -5.7870106513        0.9335305171        0.0309807950
 C         -4.8457864621        1.9936517175       -0.2035807444
 C         -4.9755441968        3.3680576962       -0.3531814262
 C         -3.8349128369        4.1226575178       -0.5417421403
 C         -2.5767252707        3.5255980068       -0.5621353252
 C         -2.4220009730        2.1599506940       -0.4159903757
 C         -3.5677178865        1.3939512650       -0.2576143149
 C         -1.7038132882       -0.8715673700       -1.0881271941
 C         -0.6496101609       -1.7602037315       -1.0794871548
 C          3.4836141494       -3.2774445837       -0.3613272937
 C          4.6016960836       -2.4748791614       -0.4093715346
 C          4.5139736112       -1.1010138259       -0.1759394369
 H          7.6417982171        1.5351875048       -0.2069148673
 H          7.4585562111        3.9637909293        0.2640659729
 H          5.2499995868        4.9471584267        0.7785432927
 H          3.2394569300        3.4942327635        0.8174172472
 H          1.1974240593       -0.8976802821        0.4402575322
 H         -1.3615236394       -3.4269375771        1.7777265736
 H         -3.2509447989       -1.8355201385        1.7657369877
 H         -5.0955716586       -2.4070348863        0.3150374752
 H         -7.5452905481       -2.4410791148        0.5566551189
 H         -8.8556327272       -0.3741096035        0.4655215713
 H         -7.7475069203        1.8060874959        0.0974961609
 H         -5.9493258771        3.8321660858       -0.3160483723
 H         -3.9133511814        5.1925863145       -0.6634355222
 H         -1.6995961292        4.1424105032       -0.6895455173
 H         -1.4386428922        1.7153013350       -0.4081448286
 H         -1.8127399554       -0.1685617971       -1.8992220258
 H          0.0779796860       -1.7496023992       -1.8771948282
 H          3.5567831598       -4.3377260613       -0.5493903687
 H          5.5714008380       -2.8916620463       -0.6365780694
