  59
  -100.335998597300       0.272696094679643      !
 Br         6.0929341391       -4.1108755018       -1.3688694160
 C          4.7363203446       -2.8389942152       -0.9510866942
 C          3.4012342832       -3.2137843000       -1.1032458836
 C          2.3874072503       -2.3258236735       -0.8082590619
 C          2.7377906835       -1.0596259982       -0.3538489260
 C          4.0980951300       -0.6785766325       -0.2239890914
 C          5.1093453586       -1.5797296058       -0.5205264482
 C          4.0932271878        0.6873683917        0.2157082316
 C          5.0979086844        1.5915966477        0.5250291872
 C          4.7156579850        2.8494270716        0.9516964127
 Br         6.0629498375        4.1251008842        1.3874640694
 C          3.3776358074        3.2198177788        1.0878248450
 C          2.3703213869        2.3287318892        0.7801867103
 C          2.7302495330        1.0638724130        0.3295772419
 N          1.9309578650        0.0008044284       -0.0169416300
 C          0.5279383881       -0.0028318185       -0.0199811185
 C         -0.1785137869        0.9939764411       -0.7051197622
 C         -1.5478856059        0.9913417926       -0.7088148717
 C         -2.2708690532       -0.0061174576       -0.0178361348
 C         -3.6865059028       -0.0064829347       -0.0127572024
 N         -4.3778930286        0.9090606181       -0.7345908574
 C         -5.6831466660        0.8920448629       -0.7170339115
 C         -6.4222979225        1.8739300221       -1.4976792699
 C         -5.7431989704        2.8217914872       -2.2655311991
 C         -6.4500474193        3.7465286089       -3.0060059824
 C         -7.8374394941        3.7392496180       -2.9916949290
 C         -8.5173437397        2.8004459080       -2.2309575862
 C         -7.8178445075        1.8718208056       -1.4868238029
 N         -6.3845510705       -0.0131209130       -0.0046565216
 C         -5.6749485155       -0.9101864315        0.7081885162
 C         -6.4045728246       -1.8886254390        1.5030764524
 C         -5.7159269704       -2.8065593970        2.2979438310
 C         -6.4132450766       -3.7251734529        3.0551746520
 C         -7.8002971578       -3.7416752856        3.0298820851
 C         -8.4896130803       -2.8330962443        2.2412960138
 C         -7.7996712348       -1.9101888635        1.4812154512
 N         -4.3696814835       -0.9226452792        0.7179663990
 C         -1.5443216002       -1.0033326616        0.6698000802
 C         -0.1750736335       -1.0027313070        0.6642491504
 H          3.1663291845       -4.2046146553       -1.4591636755
 H          1.3541154476       -2.6056526313       -0.9393160592
 H          6.1486462176       -1.3084410792       -0.4238723237
 H          6.1391870575        1.3235782662        0.4413223208
 H          3.1351885622        4.2098923562        1.4408415621
 H          1.3346330995        2.6052501624        0.8987121314
 H          0.3708676887        1.7460830847       -1.2527792039
 H         -2.1017854230        1.7461204521       -1.2446847197
 H         -4.6641565102        2.8139578978       -2.2678959912
 H         -5.9215770005        4.4780704395       -3.5995347229
 H         -8.3872044007        4.4640266952       -3.5735870529
 H         -9.5974855350        2.7949659170       -2.2206119891
 H         -8.3319382515        1.1349310821       -0.8892761563
 H         -4.6371789002       -2.7798917746        2.3092194185
 H         -5.8773342440       -4.4332857063        3.6701348248
 H         -8.3426275708       -4.4619974173        3.6243129508
 H         -9.5695360092       -2.8466664005        2.2219398289
 H         -8.3209666339       -1.1959583775        0.8628983701
 H         -2.0957206276       -1.7601859623        1.2052848728
 H          0.3768403450       -1.7540172474        1.2105138862
  59
  -100.335934695600       0.254865898731600      !
 Br         6.1126556293       -2.1186690443       -3.7722970158
 C          4.7494432323       -1.4681269736       -2.6095462775
 C          3.4165164318       -1.6944020038       -2.9526182692
 C          2.3984816408       -1.2379865039       -2.1409062064
 C          2.7430275214       -0.5484614127       -0.9842180919
 C          4.1013751018       -0.3419365636       -0.6307814808
 C          5.1166482209       -0.8020547894       -1.4553434544
 C          4.0893408392        0.3523411085        0.6252921099
 C          5.0884721425        0.8347291522        1.4569919273
 C          4.6986318138        1.4940370728        2.6075681596
 Br         6.0385460957        2.1744518125        3.7798318087
 C          3.3584253993        1.6922078998        2.9403589225
 C          2.3565911108        1.2132865416        2.1217750157
 C          2.7243398605        0.5299029643        0.9683937761
 N          1.9308599088       -0.0182500261       -0.0106050363
 C          0.5276025125       -0.0298556161       -0.0156638496
 C         -0.1776747512        0.4545347906       -1.1245619018
 C         -1.5471120581        0.4551687017       -1.1249200501
 C         -2.2706479591       -0.0404113014       -0.0177850636
 C         -3.6863115094       -0.0366028938       -0.0139976113
 N         -4.3753317300        0.5308112168       -1.0343456654
 C         -5.6805493599        0.5414917107       -1.0037514125
 C         -6.4147169266        1.1735916655       -2.0906858863
 C         -5.7314045529        1.7377736016       -3.1695204361
 C         -6.4327360617        2.3449368186       -4.1907557946
 C         -7.8185759875        2.3984633413       -4.1507450131
 C         -8.5027727671        1.8394494937       -3.0820166132
 C         -7.8088686006        1.2293069849       -2.0565855966
 N         -6.3840624639       -0.0018549009        0.0097459043
 C         -5.6770611375       -0.5716525616        1.0065488572
 C         -6.4090477914       -1.1893011978        2.1034594378
 C         -5.7228518908       -1.8347650050        3.1337670743
 C         -6.4218497268       -2.4263148530        4.1657012110
 C         -7.8084522487       -2.3825137759        4.1849257534
 C         -8.4954317723       -1.7423273330        3.1645949393
 C         -7.8037902013       -1.1483214700        2.1281375857
 N         -4.3720181354       -0.5952877026        1.0140565304
 C         -1.5451135659       -0.5350805592        1.0885025658
 C         -0.1758232762       -0.5235098045        1.0903658740
 H          3.1863208957       -2.2344130476       -3.8576315388
 H          1.3664174820       -1.4230103103       -2.3936020274
 H          6.1549209167       -0.6515654012       -1.2052211799
 H          6.1313724082        0.7063023786        1.2142383254
 H          3.1102154138        2.2285367016        3.8428252001
 H          1.3189616687        1.3767794204        2.3662357571
 H          0.3721002550        0.8541228870       -1.9644878197
 H         -2.1003250794        0.8405953363       -1.9669922096
 H         -4.6536279308        1.6892670482       -3.1863148725
 H         -5.9010387526        2.7800031451       -5.0242096298
 H         -8.3639054947        2.8756465586       -4.9515466336
 H         -9.5816883893        1.8825855942       -3.0506830646
 H         -8.3262577625        0.7896095473       -1.2177421741
 H         -4.6444780086       -1.8632633242        3.1033094793
 H         -5.8875250733       -2.9259476268        4.9605295813
 H         -8.3521663985       -2.8468472772        4.9941760581
 H         -9.5748594896       -1.7083123772        3.1804872473
 H         -8.3233470663       -0.6473609622        1.3260191541
 H         -2.0967028787       -0.9242851924        1.9298234479
 H          0.3760490926       -0.9183736119        1.9312444129
  59
  -100.335748735700       0.209339160164261      !
 Br         6.0891690872       -4.2718130000       -0.6962795954
 C          4.7328202547       -2.9500122146       -0.4835143493
 C          3.3972954710       -3.3446653047       -0.5648077611
 C          2.3838187925       -2.4216308928       -0.4085452419
 C          2.7329953214       -1.0990150554       -0.1600492823
 C          4.0940821447       -0.7013690762       -0.1102777991
 C          5.1054033725       -1.6369615293       -0.2674561814
 C          4.0923587245        0.7170357688        0.1029302202
 C          5.1013431244        1.6588715915        0.2365857281
 C          4.7257729212        2.9699169922        0.4594360792
 Br         6.0781685303        4.3006961487        0.6389887974
 C          3.3900537598        3.3566520543        0.5705331491
 C          2.3788901799        2.4275114815        0.4372583974
 C          2.7304402395        1.1068104174        0.1815185789
 N          1.9272397963        0.0017149654        0.0190928019
 C          0.5260595254       -0.0003066838        0.0237249640
 C         -0.1835838703        0.9345658429       -0.7426678028
 C         -1.5524262324        0.9375596250       -0.7369957980
 C         -2.2754070526       -0.0067114388        0.0252425793
 C         -3.6910536589       -0.0094576001        0.0227694002
 N         -4.3762596506        0.9427258976       -0.6575834258
 C         -5.6814190884        0.9400682685       -0.6278704692
 C         -6.4141386871        1.9928108825       -1.3178023932
 C         -5.7284926264        2.9951401257       -2.0060195105
 C         -6.4285170175        3.9951870955       -2.6490226446
 C         -7.8153507699        4.0101299525       -2.6139792051
 C         -8.5017835682        3.0169910935       -1.9321281753
 C         -7.8091371204        2.0124334262       -1.2868655470
 N         -6.3878830541       -0.0076440120        0.0199256317
 C         -5.6838708578       -0.9596809762        0.6643211272
 C         -6.4194394122       -2.0171193795        1.3434989471
 C         -5.7364051611       -3.0412801328        2.0018674332
 C         -6.4392720165       -4.0479161555        2.6311982554
 C         -7.8266078793       -4.0475060376        2.6130379826
 C         -8.5104533882       -3.0323524464        1.9616015507
 C         -7.8148681500       -2.0214605891        1.3293112266
 N         -4.3785156422       -0.9631749000        0.6973950676
 C         -1.5476352142       -0.9466251226        0.7880993512
 C         -0.1784875531       -0.9372515974        0.7921011347
 H          3.1612679331       -4.3796673619       -0.7561795637
 H          1.3515061485       -2.7220098555       -0.4914816579
 H          6.1446053358       -1.3516044495       -0.2254781199
 H          6.1410401254        1.3797687583        0.1718520274
 H          3.1522767856        4.3904596857        0.7662068456
 H          1.3467858562        2.7216056509        0.5426412201
 H          0.3624491185        1.6305990805       -1.3626392706
 H         -2.1067851101        1.6465871067       -1.3315616924
 H         -4.6497548747        2.9712009660       -2.0228040860
 H         -5.8948694733        4.7696345373       -3.1803058027
 H         -8.3599077760        4.7952544514       -3.1172907683
 H         -9.5815307251        3.0296589101       -1.9050354170
 H         -8.3278731913        1.2326807081       -0.7512346173
 H         -4.6573183481       -3.0295545585        2.0049354012
 H         -5.9075502059       -4.8396695152        3.1383950056
 H         -8.3732853051       -4.8380700764        3.1054382824
 H         -9.5905465936       -3.0325649494        1.9479016817
 H         -8.3321393823       -1.2256798990        0.8161138521
 H         -2.0976486377       -1.6576463130        1.3843429125
 H          0.3714316046       -1.6310090603        1.4112377891
  59
  -100.335390703600       0.143321160732491      !
 Br         6.0649857706       -4.1986743517       -1.1091320808
 C          4.7169827543       -2.8945081364       -0.7713186955
 C          3.3793396983       -3.2700557962       -0.8966064210
 C          2.3715738167       -2.3595451341       -0.6545014809
 C          2.7299901464       -1.0699769166       -0.2786613943
 C          4.0928970459       -0.6889619050       -0.1796134951
 C          5.0981392600       -1.6126395701       -0.4225402366
 C          4.0975170934        0.7017670015        0.1731527103
 C          5.1093371624        1.6185026086        0.4150041786
 C          4.7372732572        2.9030265396        0.7638006730
 Br         6.0945543457        4.1975723579        1.1017175290
 C          3.4022989317        3.2876022065        0.8902126097
 C          2.3880150772        2.3839608978        0.6492164845
 C          2.7371311676        1.0917757145        0.2736116830
 N          1.9299952012        0.0134477134       -0.0018933420
 C          0.5277280806        0.0150120915        0.0018661595
 C         -0.1800225761        0.9884953070       -0.7154211451
 C         -1.5493320063        0.9877986338       -0.7153183104
 C         -2.2721689978        0.0106087810        0.0043173123
 C         -3.6877010318        0.0055047769        0.0046358639
 N         -4.3793507656        0.9327749040       -0.7012568009
 C         -5.6845597227        0.9177560428       -0.6806160787
 C         -6.4241870275        1.9224815124       -1.4308469825
 C         -5.7457458097        2.8978855765       -2.1637603672
 C         -6.4531986453        3.8460861745       -2.8734946767
 C         -7.8404880971        3.8352178661       -2.8625913995
 C         -8.5197982684        2.8692859170       -2.1360503044
 C         -7.8196988384        1.9169594097       -1.4231450674
 N         -6.3854513422       -0.0058939836        0.0086957119
 C         -5.6754943187       -0.9245995547        0.6921605555
 C         -6.4049854562       -1.9400293027        1.4397944919
 C         -5.7157276421       -2.9198289621        2.1563743376
 C         -6.4126324670       -3.8789840397        2.8620062874
 C         -7.8000422620       -3.8740382712        2.8633131384
 C         -8.4900060460       -2.9033586061        2.1532398831
 C         -7.8003492278       -1.9404687085        1.4440534943
 N         -4.3702038687       -0.9302508681        0.7112376304
 C         -1.5448507645       -0.9629627281        0.7244182671
 C         -0.1757612817       -0.9595137078        0.7220203708
 H          3.1375207428       -4.2794788513       -1.1901299428
 H          1.3367108587       -2.6413068637       -0.7666662724
 H          6.1392165995       -1.3414901922       -0.3473975746
 H          6.1485136423        1.3400588720        0.3389467077
 H          3.1676892926        4.2988127507        1.1834598604
 H          1.3552178823        2.6731698742        0.7622700778
 H          0.3680433253        1.7189740673       -1.2929136034
 H         -2.1031768229        1.7253233032       -1.2745681728
 H         -4.6665279812        2.8928228528       -2.1635985062
 H         -5.9251437889        4.5991624384       -3.4398178665
 H         -8.3906766665        4.5787323158       -3.4200421685
 H         -9.5999036398        2.8616595925       -2.1279114164
 H         -8.3329345195        1.1582952294       -0.8531574034
 H         -4.6366651263       -2.9102924766        2.1461414884
 H         -5.8762543949       -4.6360116821        3.4152022003
 H         -8.3420949613       -4.6261252503        3.4172672770
 H         -9.5701874658       -2.9002944755        2.1546927284
 H         -8.3221757708       -1.1780462636        0.8867625859
 H         -2.0957621182       -1.7010420746        1.2859920360
 H          0.3756201288       -1.6886550651        1.2978833247
  59
  -100.335221121800       0.119777685692004      !
 Br         6.0617070065       -2.3617600796       -3.6612995347
 C          4.7150663380       -1.6253003866       -2.5312997013
 C          3.3769516808       -1.8499071222       -2.8554481028
 C          2.3701911066       -1.3342160259       -2.0656812093
 C          2.7317125713       -0.5882578968       -0.9498368397
 C          4.0945727604       -0.3800654561       -0.6160929903
 C          5.0985125946       -0.9003306137       -1.4186136524
 C          4.0988063679        0.3827701209        0.5996656042
 C          5.1083582317        0.9013049822        1.3962579133
 C          4.7327733259        1.6266872198        2.5112995789
 Br         6.0874133607        2.3609204667        3.6332114105
 C          3.3969636425        1.8535560798        2.8433348072
 C          2.3846343978        1.3395519609        2.0596267867
 C          2.7382599123        0.5931263162        0.9415853013
 N          1.9325924261        0.0030981309       -0.0017572072
 C          0.5285071251        0.0040753819        0.0019695818
 C         -0.1775383236        0.4688989770       -1.1143575594
 C         -1.5469898707        0.4779870014       -1.1095847842
 C         -2.2687385985        0.0036541754        0.0079090283
 C         -3.6846597375        0.0023422650        0.0102345236
 N         -4.3741488836        0.5780966876       -1.0054792137
 C         -5.6793573052        0.5728709261       -0.9834611446
 C         -6.4154597940        1.2189196469       -2.0609464797
 C         -7.8108202908        1.1969933475       -2.0686913244
 C         -8.5072817475        1.8211620242       -3.0840070692
 C         -7.8243564475        2.4724667182       -4.0999076597
 C         -6.4370837240        2.4964629270       -4.0980530197
 C         -5.7332590840        1.8750010785       -3.0872060207
 N         -6.3827284709       -0.0008994069        0.0134581083
 C         -5.6752554446       -0.5733751412        1.0082771865
 C         -6.4071618059       -1.2226385074        2.0866882634
 C         -5.7208802509       -1.8790537514        3.1100410215
 C         -6.4207546426       -2.5040518968        4.1214555673
 C         -7.8080709321       -2.4832620367        4.1268563822
 C         -8.4950226158       -1.8318279443        3.1137510050
 C         -7.8025768350       -1.2040935436        2.0978931106
 N         -4.3698912835       -0.5754254860        1.0276702081
 C         -1.5421136576       -0.4697208563        1.1226079283
 C         -0.1726116830       -0.4602944484        1.1215733722
 H          3.1342773087       -2.4365177872       -3.7275773856
 H          1.3337941854       -1.5161111664       -2.3025856656
 H          6.1401052377       -0.7510030989       -1.1821470586
 H          6.1482819613        0.7502583373        1.1535754119
 H          3.1604851002        2.4399535420        3.7173525021
 H          1.3499751280        1.5230365765        2.3028051006
 H          0.3724713508        0.8442038969       -1.9653830895
 H         -2.1017324670        0.8480638410       -1.9574866507
 H         -8.3271137360        0.6869781812       -1.2701972219
 H         -9.5872941129        1.8030870770       -3.0859521651
 H         -8.3717296517        2.9613252598       -4.8922002985
 H         -5.9062159585        3.0047248734       -4.8896885420
 H         -4.6542920987        1.8881277410       -3.0702727183
 H         -4.6419508578       -1.8895823270        3.0904473484
 H         -5.8867159674       -3.0130370597        4.9104903787
 H         -8.3523516276       -2.9758728816        4.9189350119
 H         -9.5750784004       -1.8166005080        3.1181914192
 H         -8.3220357962       -0.6934885801        1.3018709601
 H         -2.0930962969       -0.8398756893        1.9729331482
 H          0.3810862099       -0.8358907830        1.9700646190
