  59
       -100.69529054
 Br         6.0575373988       -4.1536533478       -1.3024965296
 C          4.7118481672       -2.8641359086       -0.9045709108
 C          3.3735463332       -3.2310213512       -1.0472778746
 C          2.3673949085       -2.3309071926       -0.7632174022
 C          2.7280894000       -1.0608458897       -0.3278463027
 C          4.0916692996       -0.6873260285       -0.2110948026
 C          5.0952732953       -1.6005501799       -0.4965880756
 C          4.0987555463        0.6855027467        0.2058982080
 C          5.1121980590        1.5881692464        0.4901579870
 C          4.7424088447        2.8557782384        0.8982212833
 Br         6.1019817429        4.1307545781        1.2960221106
 C          3.4081139394        3.2364965127        1.0422545170
 C          2.3922312736        2.3468749037        0.7594572633
 C          2.7390632374        1.0729001242        0.3242568388
 N          1.9300167193        0.0100066245       -0.0011104993
 C          0.5277541463        0.0139481775        0.0026042185
 C         -0.1781095792        1.0209895037       -0.6687420473
 C         -1.5474180162        1.0227823069       -0.6687824218
 C         -2.2721466793        0.0145343464        0.0046217431
 C         -3.6876856795        0.0119987340        0.0045883689
 N         -4.3775342824        0.9723182788       -0.6575211190
 C         -5.6827717479        0.9587335566       -0.6377059435
 C         -6.4204499073        1.9985718127       -1.3405114376
 C         -5.7401179900        3.0057335847       -2.0272655794
 C         -6.4457310387        3.9871682111       -2.6922415025
 C         -7.8330397178        3.9783313793       -2.6819670798
 C         -8.5142223389        2.9809290903       -2.0011383842
 C         -7.8159706977        1.9952390995       -1.3331872238
 N         -6.3854528714        0.0053362760        0.0078961337
 C         -5.6772777533       -0.9454194158        0.6480013677
 C         -6.4087345973       -1.9931544809        1.3475966183
 C         -5.7213750328       -3.0064388804        2.0179412586
 C         -6.4201365185       -3.9960682415        2.6781967850
 C         -7.8075352469       -3.9886620704        2.6796197867
 C         -8.4956184114       -2.9847887850        2.0153509791
 C         -7.8040975528       -1.9912503206        1.3517177688
 N         -4.3720028853       -0.9543277755        0.6669008668
 C         -1.5467160354       -0.9927615199        0.6787761019
 C         -0.1776221696       -0.9916979333        0.6766517372
 H          3.1299439476       -4.2252767910       -1.3873975115
 H          1.3320407460       -2.6052691077       -0.8884342231
 H          6.1368286873       -1.3350805768       -0.4088459150
 H          6.1508799405        1.3116675462        0.4013313671
 H          3.1752918124        4.2334179153        1.3821426922
 H          1.3599420899        2.6323999139        0.8857406853
 H          0.3713769302        1.7765080671       -1.2116317850
 H         -2.0998306209        1.7864982616       -1.1932110462
 H         -4.6609111714        2.9987035699       -2.0272518110
 H         -5.9162163676        4.7647774096       -3.2229258659
 H         -8.3817855059        4.7479404018       -3.2043199980
 H         -9.5943411057        2.9748997784       -1.9934499160
 H         -8.3306769676        1.2118508062       -0.7991007348
 H         -4.6422953060       -2.9984022980        2.0082497435
 H         -5.8852250312       -4.7789530348        3.1956705591
 H         -8.3510438962       -4.7646829536        3.1979932791
 H         -9.5757927147       -2.9798284595        2.0168572497
 H         -8.3244470649       -1.2028128214        0.8304052165
 H         -2.0990591569       -1.7551277590        1.2054110162
 H          0.3723395037       -1.7478069242        1.2180647702
  59
       -100.69519434
 Br         6.0856880538       -4.0539341047       -1.5578724209
 C          4.7313162274       -2.8003660187       -1.0815643202
 C          3.3955772029       -3.1652510348       -1.2510783356
 C          2.3833149571       -2.2901081446       -0.9152411437
 C          2.7359211481       -1.0470274952       -0.4024711680
 C          4.0968935658       -0.6748999615       -0.2549396131
 C          5.1065553203       -1.5631442104       -0.5929387343
 C          4.0944324728        0.6691505806        0.2477385396
 C          5.1007025629        1.5562019250        0.5988133471
 C          4.7206652375        2.7935473010        1.0834224117
 Br         6.0701984763        4.0451445253        1.5780908746
 C          3.3832951288        3.1596501195        1.2365024316
 C          2.3744156978        2.2856535490        0.8877189532
 C          2.7321217069        1.0424396188        0.3788651502
 N          1.9309589191       -0.0019256669       -0.0167298153
 C          0.5279356749       -0.0028618950       -0.0200484065
 C         -0.1765925464        1.0259834079       -0.6581970343
 C         -1.5459662620        1.0260168802       -0.6621212876
 C         -2.2708734358       -0.0011470242       -0.0182847101
 C         -3.6865094370        0.0008298117       -0.0133427199
 N         -4.3761140829        0.9501755304       -0.6919207324
 C         -5.6813993436        0.9347394131       -0.6752787745
 C         -6.4186378869        1.9531741073       -1.4095269105
 C         -5.7376924557        2.9344449513       -2.1324613330
 C         -6.4427386274        3.8938684355       -2.8292345044
 C         -7.8301439773        3.8884589171       -2.8153892487
 C         -8.5118770819        2.9165680120       -2.0991410120
 C         -7.8141877776        1.9531041534       -1.3988940043
 N         -6.3845635119       -0.0012641939       -0.0057773434
 C         -5.6767084380       -0.9317674581        0.6646816397
 C         -6.4082391199       -1.9447467456        1.4131982925
 C         -5.7213921583       -2.8998681100        2.1646199079
 C         -6.4205018651       -3.8513965843        2.8783019251
 C         -7.8075774145       -3.8641797857        2.8521578925
 C         -8.4951124637       -2.9186938036        2.1065761593
 C         -7.8033707406       -1.9627308285        1.3902463302
 N         -4.3714678076       -0.9470439500        0.6739757360
 C         -1.5462511217       -1.0305514507        0.6223415126
 C         -0.1770034200       -1.0321862635        0.6169352410
 H          3.1589327319       -4.1380479131       -1.6526605823
 H          1.3495385801       -2.5616645923       -1.0592398580
 H          6.1463309299       -1.2985316995       -0.4837020154
 H          6.1415065240        1.2904658358        0.5028300777
 H          3.1425871567        4.1326960623        1.6351130229
 H          1.3392114846        2.5582526466        1.0188785059
 H          0.3742438618        1.8017181655       -1.1702811197
 H         -2.0984064130        1.8058821385       -1.1623935980
 H         -4.6586656170        2.9247647633       -2.1351002266
 H         -5.9128429862        4.6512295762       -3.3880954097
 H         -8.3784960746        4.6404854913       -3.3630275574
 H         -9.5920287414        2.9125802654       -2.0891485107
 H         -8.3297171403        1.1901880225       -0.8362658095
 H         -4.6425993361       -2.8757175267        2.1772094215
 H         -5.8859790363       -4.5882873185        3.4597456365
 H         -8.3513128092       -4.6103500290        3.4124400472
 H         -9.5750550309       -2.9293835554        2.0865231296
 H         -8.3232664987       -1.2195991451        0.8057347436
 H         -2.0991116813       -1.8104584797        1.1220434208
 H          0.3734555168       -1.8090418628        1.1277533125
  59
       -100.69510223
 Br         6.0816364028       -4.2458342638       -0.8931751360
 C          4.7276182535       -2.9329075181       -0.6193745995
 C          3.3914056547       -3.3209166821       -0.7192290321
 C          2.3795544154       -2.4043163029       -0.5203665351
 C          2.7310498967       -1.0953425141       -0.2104864127
 C          4.0928390303       -0.7029225534       -0.1419751289
 C          5.1025123810       -1.6320207683       -0.3423376503
 C          4.0936185684        0.7040177397        0.1370433971
 C          5.1042655576        1.6367714933        0.3146134655
 C          4.7310020260        2.9367002799        0.5981884735
 Br         6.0857496270        4.2552130196        0.8397859036
 C          3.3959522125        3.3202731209        0.7268978989
 C          2.3831488915        2.4001870651        0.5502988282
 C          2.7323843833        1.0921881575        0.2334155231
 N          1.9272341381       -0.0026827998        0.0195470768
 C          0.5260512198       -0.0023682470        0.0237928086
 C         -0.1816787071        0.9684636892       -0.6983858157
 C         -1.5505150032        0.9736809660       -0.6928612163
 C         -2.2754226813       -0.0037389700        0.0244361969
 C         -3.6910711635       -0.0037909911        0.0215475939
 N         -4.3743573376        0.9802825935       -0.6138733821
 C         -5.6795279953        0.9786193601       -0.5845839827
 C         -6.4101430975        2.0636753010       -1.2249012937
 C         -5.7224865698        3.0957118340       -1.8655621457
 C         -6.4205153879        4.1258848512       -2.4614484133
 C         -7.8073299423        4.1417034174       -2.4260315644
 C         -8.4957547456        3.1191451252       -1.7913021449
 C         -7.8051126686        2.0843745324       -1.1933703681
 N         -6.3878919346        0.0030603653        0.0182384347
 C         -5.6857889119       -0.9792268792        0.6177517566
 C         -6.4234648780       -2.0658009984        1.2468069517
 C         -5.7424742213       -3.1207461074        1.8569156656
 C         -6.4473422530       -4.1543116379        2.4385500305
 C         -7.8346697903       -4.1505319272        2.4201441108
 C         -8.5164899968       -3.1049054797        1.8165403856
 C         -7.8188950180       -2.0669376916        1.2321463907
 N         -4.3804517782       -0.9866322547        0.6508947765
 C         -1.5495724334       -0.9794749382        0.7428516577
 C         -0.1804112778       -0.9727893116        0.7475662494
 H          3.1535624837       -4.3454547066       -0.9586322194
 H          1.3467243851       -2.6986289843       -0.6174105429
 H          6.1422164158       -1.3508191533       -0.2869055938
 H          6.1434748986        1.3590939391        0.2371678786
 H          3.1599882605        4.3442798856        0.9704455593
 H          1.3515475526        2.6909332177        0.6690490161
 H          0.3657913955        1.6916134154       -1.2851650534
 H         -2.1034187822        1.7106302758       -1.2538830196
 H         -4.6437890526        3.0706172293       -1.8832219761
 H         -5.8853146024        4.9232567861       -2.9559870389
 H         -8.3503206922        4.9504004174       -2.8923528582
 H         -9.5754850310        3.1325025135       -1.7638703215
 H         -8.3254128574        1.2814735159       -0.6947326472
 H         -4.6633689042       -3.1111396935        1.8607474982
 H         -5.9171997880       -4.9697878385        2.9084410209
 H         -8.3829183192       -4.9621688431        2.8750889755
 H         -9.5965778090       -3.1025144710        1.8026240347
 H         -8.3345779097       -1.2471854389        0.7564517627
 H         -2.1010431947       -1.7164843143        1.3052300558
 H          0.3680732852       -1.6956211336        1.3338422385
  59
       -100.69510150
 Br         6.1088074276       -1.9293675545       -3.8786021694
 C          4.7467766473       -1.3379765319       -2.6833318584
 C          3.4134499256       -1.5440703292       -3.0373909440
 C          2.3962436356       -1.1288484186       -2.2028440336
 C          2.7420288082       -0.5008520934       -1.0119883163
 C          4.1007470570       -0.3150593216       -0.6486099090
 C          5.1151840616       -0.7333074130       -1.4961810472
 C          4.0899742803        0.3130734431        0.6418242628
 C          5.0899749112        0.7500767019        1.4972265437
 C          4.7013268863        1.3493492758        2.6805748344
 Br         6.0424673267        1.9659000714        3.8862879013
 C          3.3614784543        1.5320429108        3.0235089636
 C          2.3587821296        1.0978247454        2.1813855244
 C          2.7253007489        0.4746888357        0.9939907795
 N          1.9308276332       -0.0206594532       -0.0119731117
 C          0.5275531661       -0.0298174819       -0.0173118423
 C         -0.1771300958        0.5125924123       -1.0994014790
 C         -1.5465647976        0.5153609783       -1.0994179257
 C         -2.2707106165       -0.0359231511       -0.0193483634
 C         -3.6863659683       -0.0301281923       -0.0150495501
 N         -4.3746502691        0.5905698960       -1.0044010515
 C         -5.6798452712        0.6016648950       -0.9729996151
 C         -6.4131858738        1.2904889966       -2.0254785159
 C         -5.7291527365        1.9088750003       -3.0737143961
 C         -6.4296866117        2.5693336257       -4.0618851347
 C         -7.8154358061        2.6228524370       -4.0188368082
 C         -8.5003467704        2.0101537069       -2.9804248741
 C         -7.8072442561        1.3465134202       -1.9882171753
 N         -6.3840561509        0.0075101687        0.0110736734
 C         -5.6777978772       -0.6143733859        0.9767840192
 C         -6.4105857862       -1.2870173072        2.0403060720
 C         -5.7252457632       -1.9861725145        3.0355513761
 C         -6.4250136922       -2.6294297596        4.0355324870
 C         -7.8115436137       -2.5845426846        4.0573177663
 C         -8.4976740251       -1.8911745847        3.0717619564
 C         -7.8052591858       -1.2452183860        2.0673929239
 N         -4.3727921450       -0.6403838425        0.9827604299
 C         -1.5457866152       -0.5884937748        1.0595960501
 C         -0.1764797294       -0.5791520894        1.0617494250
 H          3.1822838973       -2.0360003616       -3.9691731294
 H          1.3638564161       -1.2989048740       -2.4645745167
 H          6.1537257226       -0.5976146979       -1.2388153453
 H          6.1326390545        0.6328170316        1.2478967106
 H          3.1142334491        2.0211674670        3.9526640844
 H          1.3214435932        1.2500063711        2.4342399258
 H          0.3731443575        0.9544071106       -1.9175680576
 H         -2.0992993635        0.9448498177       -1.9202149140
 H         -4.6514553058        1.8596400028       -3.0932476692
 H         -5.8974337140        3.0462705044       -4.8717419732
 H         -8.3601381806        3.1418186501       -4.7936559630
 H         -9.5791894516        2.0532722706       -2.9466507264
 H         -8.3251954484        0.8646496933       -1.1732217274
 H         -4.6469219267       -2.0147177132        3.0034122353
 H         -5.8913519402       -3.1704880202        4.8032231638
 H         -8.3558623593       -3.0894317880        4.8414866443
 H         -9.5770452201       -1.8563622171        3.0896421678
 H         -8.3241521559       -0.7024784512        1.2924876436
 H         -2.0978590205       -1.0200086653        1.8796953135
 H          0.3748993342       -1.0180013024        1.8808646498
  59
       -100.69491181
 Br         6.0564832593       -2.1834871579       -3.7787181888
 C          4.7114667185       -1.5029290347       -2.6123199982
 C          3.3728662697       -1.7086180328       -2.9468526308
 C          2.3672425444       -1.2318893330       -2.1315695042
 C          2.7303967748       -0.5439663577       -0.9795534705
 C          4.0937183950       -0.3551973690       -0.6362789839
 C          5.0965093586       -0.8358440549       -1.4645298424
 C          4.0996476450        0.3451179168        0.6165291999
 C          5.1103404943        0.8209914621        1.4379164461
 C          4.7363545825        1.4896301695        2.5884024933
 Br         6.0926082803        2.1638862864        3.7454629233
 C          3.4010411067        1.7016215401        2.9320621549
 C          2.3875828780        1.2296254120        2.1237731787
 C          2.7395730423        0.5401586136        0.9692354059
 N          1.9325941941       -0.0000276251       -0.0024190657
 C          0.5285138676        0.0030924269        0.0019488294
 C         -0.1771290144        0.5249944399       -1.0891212180
 C         -1.5465616501        0.5361043778       -1.0833128751
 C         -2.2687264310        0.0070183567        0.0090475455
 C         -3.6846469022        0.0079427731        0.0119051083
 N         -4.3735128387        0.6355133211       -0.9730729435
 C         -5.6787206351        0.6313482543       -0.9507931696
 C         -6.4141027117        1.3323268584       -1.9938860078
 C         -7.8095006434        1.3131388782       -2.0021379753
 C         -8.5052573739        1.9890529997       -2.9842651726
 C         -7.8215839666        2.6898062721       -3.9661889491
 C         -6.4342723209        2.7113730696       -3.9637114357
 C         -5.7311493885        2.0383762517       -2.9859133823
 N         -6.3827160206        0.0090245492        0.0161065624
 C         -5.6758678268       -0.6142438316        0.9803750438
 C         -6.4084975300       -1.3160409295        2.0248533072
 C         -5.7229721500       -2.0245501163        3.0133794315
 C         -6.4235519359       -2.6987753786        3.9921615771
 C         -7.8108294066       -2.6759807275        3.9991970130
 C         -8.4970298007       -1.9729638492        3.0206533064
 C         -7.8038755272       -1.2957686050        2.0375751543
 N         -4.3705024346       -0.6194417770        0.9990849464
 C         -1.5425190135       -0.5233758986        1.0980498796
 C         -0.1730035612       -0.5161844501        1.0969120215
 H          3.1289096745       -2.2499308568       -3.8474513290
 H          1.3304608499       -1.3998385684       -2.3769364010
 H          6.1384318813       -0.7004071278       -1.2212508125
 H          6.1499262803        0.6806940874        1.1874582879
 H          3.1658457760        2.2434218973        3.8347395862
 H          1.3533162320        1.4022852952        2.3763660740
 H          0.3732211645        0.9419778972       -1.9202940970
 H         -2.1009698422        0.9495437462       -1.9111614336
 H         -8.3263789216        0.7642208343       -1.2302616577
 H         -9.5852991920        1.9728939764       -2.9866638473
 H         -8.3684042230        3.2190480829       -4.7324907413
 H         -5.9028203576        3.2581687895       -4.7288328915
 H         -4.6521561675        2.0488364623       -2.9687957180
 H         -4.6440687035       -2.0358659512        2.9928196831
 H         -5.8901011244       -3.2479309411        4.7541967049
 H         -8.3556678243       -3.2071455716        4.7655588614
 H         -9.5770568938       -1.9561863434        3.0263175227
 H         -8.3227463005       -0.7446658848        1.2686374340
 H         -2.0938337382       -0.9351788150        1.9287844228
 H          0.3803508527       -0.9351643268        1.9250702881
