45
 energy: -74.390428474922 gnorm: 0.000048270029 xtb: 6.7.1 (edcfbbe)
O           -3.87934089802826        1.52856668599214        1.81094521345812
S           -3.52754997165318        1.32748532491667        0.42049415598748
O           -3.83890696048190        2.40441196505693       -0.49668195690197
C           -4.31194928388043       -0.17841458314829       -0.16337190911482
C           -4.93584741332799       -1.02152383939073        0.73505244603773
C           -5.51348809133583       -2.19282060467575        0.27113377564030
C           -5.45315026845246       -2.50453188643791       -1.07830922163664
C           -4.82148113153245       -1.65020628947480       -1.96999543513437
C           -4.24356219297284       -0.47807028386860       -1.51090803400695
C           -1.77243717456217        0.97366317314109        0.31322168524878
C           -1.20078056303214        0.14484332729057        1.26164165262099
C            0.14406636704118       -0.15929224701039        1.17786695447850
C            0.91386401501986        0.35728167386910        0.13260634043249
N            2.27209235827180        0.05015983771430        0.04638744274452
C            2.82689108792886       -1.21431176433821        0.15877847609819
C            2.20330714197241       -2.44540942046611        0.30274270300635
C            3.00267570044168       -3.57231135380278        0.35631304785076
C            4.38962323367984       -3.48641690573211        0.25836917148471
C            5.01381519394606       -2.26674576901470        0.08512224699571
C            4.23093167437007       -1.12075515113483        0.02935478240465
C            4.53392543249231        0.27152891379902       -0.16112077627274
C            5.72134859372703        0.97428397950144       -0.32077781657573
C            5.66454741000446        2.34765594132023       -0.45429886006314
C            4.44542801390080        3.02031219190092       -0.41190574800101
C            3.25104708893696        2.34175651679434       -0.25420772493653
C            3.29941675899225        0.95905989846133       -0.14909619904803
C            0.31921285245493        1.18620758900975       -0.82078365435145
C           -1.02460296840142        1.49498293001570       -0.72573470165763
H           -4.96913036898620       -0.73937356438145        1.77602458112007
H           -6.00906695221150       -2.85802695181580        0.96160153975821
H           -5.90406747241240       -3.41698006752747       -1.43845253948895
H           -4.78017636012056       -1.89538147355037       -3.02019254438207
H           -3.75658635110555        0.21372504899074       -2.17994777070501
H           -1.81062382487673       -0.22890126536960        2.06875010914308
H            0.61066319541982       -0.77822990519040        1.92838844655141
H            1.12878810762512       -2.52842919296252        0.35948275915358
H            2.54013309975602       -4.54138047056083        0.47312968028851
H            4.98002560150233       -4.38946228837135        0.30788578353987
H            6.08714768825713       -2.20095304585206       -0.01039485213970
H            6.66729901445295        0.45411972917006       -0.33333972498587
H            6.57587505261345        2.91299873532109       -0.58216532164122
H            4.43222385702039        4.09690600390160       -0.49966246478565
H            2.31581642382389        2.87780134421313       -0.20111866148752
H            0.90947215432057        1.57025938482999       -1.63818396355443
H           -1.50791948145324        2.14081571579626       -1.44210282763381
