45
 energy: -74.280842266150 gnorm: 0.000083486959 xtb: 6.7.1 (edcfbbe)
O           -4.00638669624835        0.93323415730507        2.12816462040502
S           -3.58722079673136        1.14366230733158        0.75247298668812
O           -3.95936852973541        2.40672907158547        0.13698604247901
C           -4.22166466220643       -0.19036659157916       -0.25021520072123
C           -4.44344726818668       -1.43111879066305        0.32863448099213
C           -4.83220098107458       -2.49094505512591       -0.46925479453435
C           -4.98538159644288       -2.31113289426058       -1.83817748980536
C           -4.75572894998384       -1.06587859375473       -2.40945691699571
C           -4.36762926039693       -0.00216239493560       -1.61667113342979
C           -1.84741129008126        0.92618798008113        0.63271446191242
C           -1.18531997901794        0.05734203476256        1.52465587064079
C            0.13492538863484       -0.23044847490662        1.35075401745686
C            0.86301298269492        0.34959446690160        0.26943239459202
N            2.20138331574567        0.08254204370157        0.10334147928283
C            2.79986833401430       -1.15715678548477        0.23429210491299
C            2.21988605324026       -2.39630618165718        0.47018226079407
C            3.05330077066048       -3.50522637617313        0.53625024129649
C            4.43152565813740       -3.37877383026067        0.35400030424789
C            5.01643849484600       -2.15125804656870        0.07508995162165
C            4.20282774635710       -1.02822313401641       -0.00392676622277
C            4.44040589015612        0.34953467947220       -0.30497809494140
C            5.57630508999404        1.08480248900435       -0.61847805641770
C            5.45179244354100        2.45421827139876       -0.80798678095982
C            4.22167047022227        3.10002743835877       -0.67324578404915
C            3.07014855544317        2.38564282378492       -0.36898432012779
C            3.17610547036150        1.00958291067619       -0.21870165977332
C            0.17903209956156        1.22038664909913       -0.62940010120417
C           -1.14724723889196        1.48062111293772       -0.45908513493084
H           -4.32715209821800       -1.53278466592813        1.39655293204636
H           -5.01835622931871       -3.45786208133122       -0.02610642306790
H           -5.28778163953264       -3.14036422935946       -2.45958228350659
H           -4.88209728005962       -0.92607324243063       -3.47268164344619
H           -4.19494872758132        0.98132981436832       -2.02544772837502
H           -1.74743143582788       -0.33039670576839        2.35927666412876
H            0.66711744361341       -0.82831985364161        2.07436063246855
H            1.15193411463179       -2.50461866821678        0.57583198851430
H            2.62684701754261       -4.47862638105067        0.71958029159081
H            5.05212384990671       -4.26037577671870        0.41440612473851
H            6.08045106417814       -2.07058748268175       -0.08323066787894
H            6.53664575119860        0.60118699033944       -0.70539616018138
H            6.32774912124304        3.03841393250255       -1.04752683103927
H            4.16482242548153        4.17007124776604       -0.79525532033709
H            2.12903438656495        2.89430010333297       -0.23080715068312
H            0.70849208003806        1.60303577643410       -1.48808452668119
H           -1.69259108059739        2.11899698338165       -1.13566746246525
