  122
       -184.48835709
 C         -7.4174670348        4.6373704443        2.2590105115
 C         -6.1865648266        4.1179908783        1.5168269035
 C         -5.1211187234        3.7364888280        2.5645273670
 C         -6.4938006475        2.9025301634        0.6596532423
 C         -7.6620934480        2.1608133180        0.7396061476
 C         -7.8685378683        1.0681020086       -0.0851854324
 C         -6.9189631350        0.7171463772       -1.0279875625
 C         -5.7548736876        1.4535714852       -1.1355906466
 C         -5.5264782307        2.5228778474       -0.2765757966
 N         -4.3690764226        3.3188777939       -0.3935172561
 C         -3.0856336884        2.8109727801       -0.3331876189
 C         -1.9639590984        3.6578606895       -0.3072575764
 C         -0.7018590996        3.1277287917       -0.2491450230
 C         -0.4864932680        1.7461118824       -0.2050504901
 C         -1.5979032282        0.8812343620       -0.1615694054
 C         -2.8714856401        1.4389556075       -0.2079467598
 C         -1.3880605349       -0.5583831979       -0.0590563335
 C         -2.4480011672       -1.4534026225        0.0399273956
 C         -2.2588594348       -2.8287578471        0.1733896616
 N         -3.3406773434       -3.6761585792        0.3068779930
 C         -3.2369726983       -5.0817025731        0.3012706984
 C         -2.4083440604       -5.7451013174        1.1980524785
 C         -2.3613451513       -7.1263856767        1.2006195875
 C         -3.1615808584       -7.8437119591        0.3295532927
 C         -4.0239324027       -7.1828282685       -0.5292583060
 C         -4.0773665153       -5.7982817398       -0.5571868207
 C         -4.9995476535       -4.9908051665       -1.4542733626
 C         -4.1672724707       -4.3458819206       -2.5810855020
 C         -6.0870384887       -5.8492340932       -2.0994718467
 C         -5.5705878715       -3.8942148986       -0.5721766883
 C         -6.9033473946       -3.5135753291       -0.5564449702
 C         -7.3456764229       -2.5077851392        0.2859308866
 C         -6.4641203480       -1.8857531050        1.1517817588
 C         -5.1346954348       -2.2617660428        1.1638262775
 C         -4.6805789784       -3.2391191533        0.2851784586
 C         -0.9465629043       -3.3249858471        0.0801179004
 C          0.1100250369       -2.4599423541       -0.0276510017
 C         -0.0761838775       -1.0733733314       -0.0622737199
 C          1.0600675543       -0.1943201416       -0.1188047071
 N          2.2754966790       -0.7107671536       -0.1104130299
 C          3.3167245611        0.1346293588       -0.1235529614
 C          4.6295371845       -0.3796822011       -0.1129291105
 C          5.7045631259        0.4674884089       -0.0783307540
 N          7.0333775079       -0.0113962496       -0.0345634805
 C          7.8650010044        0.3016419833       -1.1047376258
 C          7.2941180145        0.7234330189       -2.3086668303
 C          8.0834969458        1.0655152082       -3.3858613010
 C          9.4597565629        0.9792828246       -3.2828912948
 C         10.0231926728        0.5207506372       -2.1071231715
 C          9.2507847459        0.1628302703       -1.0106599144
 C          9.9213224640       -0.3480913275        0.2481213230
 C         10.7848632538        0.7869638872        0.8283495277
 C         10.7963850879       -1.5621682678       -0.1132090993
 C          8.9103542350       -0.7613461894        1.3007170763
 C          9.3611098954       -1.3181589149        2.4903249728
 C          8.4997061349       -1.6709058668        3.5116958153
 C          7.1445604497       -1.4458327601        3.3571874800
 C          6.6696427799       -0.8911765642        2.1874343052
 C          7.5355491985       -0.5578048850        1.1427710476
 C          5.4955542218        1.8794666801       -0.0731589149
 C          6.6191314640        2.7338290834        0.0028451232
 N          7.5311677440        3.4231868263        0.0908530480
 C          4.2252170424        2.4058036063       -0.1103125560
 C          3.1115258264        1.5465667951       -0.1375494047
 N          1.8732335441        2.0634934716       -0.1710936359
 C          0.8542771903        1.2250992331       -0.1669647476
 C         -4.6625398119        4.6971423939       -0.3641731910
 C         -4.1220410047        5.5656646568       -1.3045201995
 C         -4.4638262430        6.9045645707       -1.2825715565
 C         -5.3652355478        7.3690915853       -0.3416155514
 C         -5.9398637954        6.4938975973        0.5648525200
 C         -5.6009948638        5.1501582395        0.5688079570
 H         -7.7994527574        3.8739133927        2.9323016217
 H         -8.2029707752        4.9219239927        1.5624012537
 H         -7.1523754527        5.4992233024        2.8662887626
 H         -4.8590823046        4.6098229329        3.1580875717
 H         -4.2154928143        3.3555476004        2.1006855869
 H         -5.5145962688        2.9687752884        3.2278148643
 H         -8.4278911350        2.4266058554        1.4502254433
 H         -8.7825488059        0.5002738491       -0.0002671730
 H         -7.0879567090       -0.1204701770       -1.6875815007
 H         -5.0286470347        1.2168032239       -1.8988536332
 H         -2.0905036281        4.7282646620       -0.3043505629
 H          0.1628335756        3.7721486151       -0.2325840129
 H         -3.7314705173        0.7983178990       -0.1226378366
 H         -3.4573148239       -1.0836579335       -0.0040893847
 H         -1.8211159289       -5.1773288608        1.9039511125
 H         -1.7111533334       -7.6397798383        1.8927322388
 H         -3.1282787860       -8.9227371382        0.3276466037
 H         -4.6545674531       -7.7659216283       -1.1804783335
 H         -3.3722737611       -3.7182937376       -2.1881765801
 H         -3.7168564150       -5.1214768102       -3.1968391753
 H         -4.8093449144       -3.7311876774       -3.2086865708
 H         -5.6374347465       -6.6138580584       -2.7279894871
 H         -6.7186338465       -5.2371389369       -2.7385799045
 H         -6.7052870045       -6.3290728706       -1.3440446372
 H         -7.6153002638       -3.9976400798       -1.2051677811
 H         -8.3865456812       -2.2223090856        0.2758665310
 H         -6.8112121434       -1.1175752254        1.8260044800
 H         -4.4486830972       -1.8156851421        1.8683620571
 H         -0.7661856962       -4.3875798365        0.0687000365
 H          1.1202057159       -2.8329242467       -0.0877645585
 H          4.7658738840       -1.4502343648       -0.1260131864
 H          6.2193097829        0.7781928429       -2.4020185232
 H          7.6211636526        1.3991654798       -4.3027952553
 H         10.0903007231        1.2582739622       -4.1133129093
 H         11.0984302201        0.4494774296       -2.0447491653
 H         10.1596887092        1.6520779041        1.0408311523
 H         11.2676800454        0.4744570789        1.7506486972
 H         11.5532040682        1.0863681971        0.1205812636
 H         11.5344556607       -1.2999879754       -0.8656650270
 H         11.3258412016       -1.9364000411        0.7582314762
 H         10.1732475707       -2.3628929113       -0.5078298956
 H         10.4194244312       -1.4741602487        2.6341907683
 H          8.8850522815       -2.1048608833        4.4217585742
 H          6.4522462338       -1.6966477261        4.1471179145
 H          5.6112398371       -0.7074206283        2.0894158856
 H          4.0619715993        3.4727720617       -0.1068279708
 H         -3.4524697345        5.1846972217       -2.0608860574
 H         -4.0371253487        7.5794169173       -2.0091083227
 H         -5.6359072432        8.4139330291       -0.3207848544
 H         -6.6563568612        6.8774833138        1.2728816298
