122
 energy: -184.487097487979 gnorm: 0.000059672861 xtb: 6.7.1 (edcfbbe)
C           -8.20508232054493        3.74721336684186        0.53296590492900
C           -6.91258896794779        4.45171936052813        0.08132829446897
C           -7.22785654922638        5.86856842541745       -0.43202893864396
C           -5.98222654539220        4.55925229957245        1.27332534656606
C           -6.40684111645353        5.23538537489390        2.40941730306677
C           -5.62261059811075        5.33177869456616        3.54323819038130
C           -4.38470528394673        4.71531579918635        3.56093192484363
C           -3.93707712301641        4.04156463097998        2.44447659120596
C           -4.71024362663913        3.97886531912267        1.28103750943711
N           -4.22271297523956        3.30844117387773        0.16566488180789
C           -2.89660139120013        2.81659037207706        0.18872524858780
C           -1.82129089731943        3.70800439356185        0.23456995763685
C           -0.53883858752692        3.21834999041030        0.24508490251263
C           -0.29440863899093        1.84184594253486        0.19653796916777
C           -1.36920853832455        0.93160067196267        0.14463209672375
C           -2.66522471167522        1.45201273571510        0.15459461251118
C           -1.10632003985850       -0.49820143351051        0.06111692747037
C           -2.13301506733291       -1.44209399772488       -0.00925902948609
C           -1.86556881337245       -2.79496248903281       -0.13419574641091
N           -2.93255284691316       -3.71769303645224       -0.23263060949964
C           -3.74927903043711       -3.69782281051052       -1.35809380788807
C           -3.50400909104818       -2.78086662438198       -2.38514136725021
C           -4.31064740609551       -2.72801439556588       -3.50197929887427
C           -5.37384622013442       -3.60329067342858       -3.62635836597036
C           -5.59425988402375       -4.53833336139071       -2.63312776813680
C           -4.79870804465677       -4.61217985727026       -1.49727378580326
C           -5.07358606971417       -5.69497971073145       -0.47204350767478
C           -6.50969595685499       -5.52672782935197        0.05732649172609
C           -4.91289631230576       -7.06538088334885       -1.15506656802324
C           -4.11745043458326       -5.61779916502659        0.70173530320403
C           -4.24412390710701       -6.52771098545989        1.74301664797415
C           -3.43323855860474       -6.48252926000211        2.86112280885185
C           -2.48110401835696       -5.48465977617507        2.96302527339500
C           -2.33176248178050       -4.57097999086012        1.94142144338618
C           -3.12074512899618       -4.64108097018611        0.78903877008434
C           -0.54342349160288       -3.24638557210537       -0.17417082403921
C            0.48218096649211       -2.33827012845062       -0.08650209747175
C            0.22215104285066       -0.96831748358133        0.02791083891249
C            1.32569841853919       -0.04129602826206        0.10399736924727
N            2.55909597149360       -0.51187319748813        0.08917810915650
C            3.56838765838381        0.36662427863641        0.16276673949099
C            4.89892222024152       -0.10011651364067        0.16074315693345
C            5.94147200193806        0.78415823724995        0.23872833528620
N            7.28593410672293        0.35988964977677        0.22886938173918
C            7.86976811254410       -0.08416038242075       -0.95566340413437
C            7.07149138169342       -0.38478670870387       -2.06165004842959
C            7.62916783695017       -0.82716394767245       -3.24284684798508
C            9.00044698474048       -0.96944078408636       -3.34512693143129
C            9.79366698075296       -0.65008419011829       -2.25970286843752
C            9.25906352240688       -0.20627097873774       -1.05709646588461
C           10.19672789012353        0.17521271543697        0.07248341934492
C           11.02827779770280        1.38988422973414       -0.37825855210904
C           11.11342304774102       -1.02043565987669        0.38854565220353
C            9.44305793083818        0.55877055838958        1.32919401739689
C           10.14271783080839        0.86399972403829        2.48870430114232
C            9.50073942738877        1.20704301489538        3.66361296125803
C            8.11862970495881        1.22700925316286        3.70040207214371
C            7.40035972745373        0.93439378522458        2.56064701332593
C            8.04980595084055        0.63086546919561        1.36095964580018
C            5.67819690101379        2.18645122363374        0.32817887512229
C            6.77398881270713        3.08059197405300        0.36828310418283
N            7.66252359557865        3.80456028914090        0.37311253701741
C            4.39125099248764        2.66656371375901        0.33679634293605
C            3.30946153064760        1.76773667437217        0.25647880775189
N            2.05442203668306        2.23579820638602        0.26679327242623
C            1.06736988426050        1.36269352063707        0.19138232886075
C           -4.99076276936727        3.14615281983511       -0.98203461126313
C           -4.45435606933179        2.49548060612286       -2.09760349210082
C           -5.20189882171972        2.30541018328633       -3.24038263013491
C           -6.50055754453326        2.77624601921659       -3.30079520833082
C           -7.02061519080515        3.45475824183166       -2.21513512915280
C           -6.29081822561101        3.65803889210505       -1.05132660661509
H           -8.68918331863741        4.29860040408059        1.33399882243253
H           -7.97370159092713        2.74738640260525        0.89573472478133
H           -8.90829665488349        3.65890661456914       -0.29031842838677
H           -7.91032510502085        5.83280080022470       -1.27665654605979
H           -6.31037078821431        6.35845053234958       -0.75307105642205
H           -7.68323343175153        6.47135641861821        0.34884468314136
H           -7.38020247267638        5.70198998880138        2.41553511482794
H           -5.98127673920601        5.86989573488163        4.40721284244351
H           -3.76530611775339        4.75353174782008        4.44451295143722
H           -2.97702505441440        3.55002345343164        2.47667513683327
H           -2.01250804483814        4.77015403656143        0.25978205361298
H            0.31167503544187        3.88049531276524        0.27754225611723
H           -3.52413481046883        0.80061956947055        0.12615984089112
H           -3.16731922020536       -1.13889848503996        0.02382212688829
H           -2.66491731823298       -2.10650383282421       -2.31475365931437
H           -4.10182037826845       -2.00450486325048       -4.27572553324372
H           -6.01592768581893       -3.56972378798531       -4.49305937658702
H           -6.41135028504531       -5.23335177092741       -2.75310010061414
H           -6.61424004921076       -4.55714575540926        0.54085323205264
H           -7.23202942781561       -5.58577192266184       -0.75192287097614
H           -6.74976213409821       -6.29877235197467        0.78284758995152
H           -5.10964336026002       -7.87284828617797       -0.45527531719677
H           -3.89674270724513       -7.17526051136412       -1.52948831837908
H           -5.59865414949322       -7.16530839644525       -1.99179787884951
H           -4.99942207756283       -7.29672217713933        1.68560482472461
H           -3.55473151450573       -7.20927059287250        3.64962003100168
H           -1.85456531680284       -5.41149171097736        3.83933478478173
H           -1.59793643643068       -3.78632158341003        2.04161204938309
H           -0.34540849344752       -4.30282507092957       -0.27474367898449
H            1.51270088664978       -2.65450706639717       -0.11607097160679
H            5.07448483628520       -1.16336407808326        0.10454217748450
H            6.00116987815638       -0.26251258404169       -2.00388176356415
H            6.98883875450740       -1.05480441033899       -4.08189689805264
H            9.45034122268683       -1.31362996167710       -4.26372954895739
H           10.86421805223565       -0.74098039914015       -2.36129482084045
H           10.37126350930147        2.23878824904375       -0.55810489118425
H           11.74583772109704        1.66936957204749        0.38845458605514
H           11.56974554892301        1.17092217391342       -1.29482006074078
H           11.70142756060619       -1.30264363597592       -0.47978650873256
H           11.80089849738093       -0.78204515838234        1.19468033290245
H           10.51323935460336       -1.87668558161609        0.69097739313117
H           11.22167213753568        0.84302121872730        2.47846777006561
H           10.07561301884457        1.44673777890651        4.54490838054488
H            7.59647467434534        1.46754066945083        4.61426335562739
H            6.32084491908375        0.93308572830520        2.60225279063548
H            4.18779360285509        3.72488011955116        0.39482077263482
H           -3.43528629373108        2.14222744608818       -2.07542477441773
H           -4.76389486842706        1.79325883790543       -4.08397816389099
H           -7.09813048448057        2.63071039128884       -4.18753866046731
H           -8.02653485101363        3.84021176793292       -2.28322896754871
