122
 energy: -184.488673482670 gnorm: 0.000051107868 xtb: 6.7.1 (edcfbbe)
C           -7.41556805197269        4.63700747616678        2.29021478856356
C           -6.18647569405752        4.11570892160406        1.54647994002532
C           -5.12252336214616        3.72810474499660        2.59349743419830
C           -6.49774883020180        2.90410674026805        0.68526892880037
C           -7.67039091995031        2.16856987686616        0.75808342384798
C           -7.87959853456194        1.08037552187789       -0.07197859406977
C           -6.92764161084528        0.72663188312721       -1.01144664324106
C           -5.75849437667738        1.45602478211056       -1.11084540145931
C           -5.52911640594314        2.52231848751722       -0.24859737104216
N           -4.36908979950955        3.31492384758803       -0.36150983360052
C           -3.08764882410896        2.80344597599653       -0.29575993009951
C           -1.96414307956871        3.64789339545370       -0.27459252639435
C           -0.70374252167827        3.11508878387375       -0.20986730777334
C           -0.49245998343438        1.73338456703909       -0.15301723752541
C           -1.60565221703280        0.87092170235794       -0.10567644211652
C           -2.87781515045103        1.43155217285147       -0.15955050698076
C           -1.39802960678674       -0.56854267399566        0.00652243781218
C           -2.45972076216783       -1.46401120128075        0.08144897155190
C           -2.27325360553954       -2.83950874022779        0.21875530471167
N           -3.35810408384946       -3.68812644152224        0.31444845904238
C           -3.25493619521103       -5.09374091105051        0.28936613897774
C           -2.46107813531688       -5.77288435466241        1.20547113372468
C           -2.41454258661690       -7.15409471533182        1.18644817707091
C           -3.18130790433475       -7.85588679578880        0.27368478706122
C           -4.01048701848421       -7.17985309849449       -0.60573065264785
C           -4.06259716245265       -5.79502458615261       -0.61207481192535
C           -4.95123976703763       -4.97181590006579       -1.52849429842683
C           -4.07820036165697       -4.30762288084425       -2.61243669457358
C           -6.01397273362085       -5.81828699158538       -2.22828645742049
C           -5.55492532006336       -3.89109763102834       -0.64859273718728
C           -6.88807882221168       -3.51211082353432       -0.67223409528029
C           -7.36062366964801       -2.52186940352367        0.17216529559447
C           -6.50992796027453       -1.91244293637583        1.07710679812432
C           -5.18087758379428       -2.28630609495635        1.12745540243384
C           -4.69637495861833       -3.25013609550950        0.25028535187652
C           -0.95848895149232       -3.33488782718250        0.16795323106363
C            0.09990200651089       -2.46952715364575        0.08420141587950
C           -0.08620974871335       -1.08350435868737        0.03372802898555
C            1.05160773737828       -0.20633064429776       -0.02101926195245
N            2.26656176644190       -0.72282539618105        0.01348039801053
C            3.30859101752607        0.12064598944614       -0.02808437888573
C            4.62122361328035       -0.39417217467704       -0.00208918785683
C            5.69560845632192        0.45300679833420       -0.02970254753273
N            7.02686569898445       -0.02404460966144        0.00397646979281
C            7.81297859708266        0.18884597492378       -1.12284878375269
C            7.19298192135593        0.50490317430761       -2.33476561807980
C            7.93698603238337        0.73542176892983       -3.47221201080808
C            9.31564036337305        0.64255307208215       -3.42081155100095
C            9.92728421715904        0.29529780858441       -2.23089483123874
C            9.20142996145852        0.05223680397898       -1.07304036897582
C            9.92415020118755       -0.33037443231601        0.20258591724597
C           10.81136837665165        0.85477041485021        0.62509972529940
C           10.78264299472252       -1.57936170177188       -0.06705251644802
C            8.95866041997516       -0.62881261216151        1.33376568782023
C            9.45729528113323       -1.05678521309391        2.55693541046183
C            8.63625709731424       -1.30398345927594        3.64089474950029
C            7.27396731130698       -1.10538573749801        3.51410964941952
C            6.75179076023234       -0.67728326401958        2.31174376199112
C            7.57779115608765       -0.44634482206895        1.20898667787970
C            5.48907386030875        1.86352338521202       -0.09042807440087
C            6.61890455697408        2.71279358981765       -0.08401362024736
N            7.53937504334585        3.39592271314137       -0.05625389659462
C            4.21892049921389        2.38995688864985       -0.12876380706072
C            3.10505396034220        1.53106476961142       -0.10130249069943
N            1.86698556494661        2.04806586031584       -0.14279692389547
C            0.84743023256659        1.21139045624912       -0.10700055266330
C           -4.65960419346366        4.69397115875980       -0.33217927686370
C           -4.11753224406961        5.56205664184022       -1.27197656491769
C           -4.45636916526050        6.90178207735281       -1.24865694215713
C           -5.35630374837020        7.36758308372393       -0.30694050931805
C           -5.93299906933770        6.49277033439683        0.59863157955818
C           -5.59732589807041        5.14821829622031        0.60096884542803
H           -7.80017311533418        3.87260850378669        2.96096103848721
H           -8.20005208394860        4.92664501380245        1.59458091044839
H           -7.14748701601592        5.49591109329665        2.90035130282911
H           -4.85761582512287        4.59914836212826        3.18920774772392
H           -4.21799681609637        3.34525228960151        2.12919614335339
H           -5.51852493400322        2.96008015124959        3.25490754072830
H           -8.43728207156204        2.43566336128631        1.46702718548375
H           -8.79760911203805        0.51803601699402        0.00648192951524
H           -7.09841515886554       -0.10774423973379       -1.67460139631001
H           -5.02880904602685        1.21647165168546       -1.86992391216774
H           -2.08804862341772        4.71852669978643       -0.27996372760486
H            0.16279095792801        3.75706870746303       -0.19707908313093
H           -3.74004549612555        0.79419381630715       -0.07069713293462
H           -3.46789375571198       -1.09498473692472        0.01060942472010
H           -1.90040945375326       -5.21766490873866        1.94223668682911
H           -1.79110101281906       -7.67976940237146        1.89379147051475
H           -3.14832355639786       -8.93473584803237        0.25483269923778
H           -4.61623528677052       -7.75121290974665       -1.29010086625903
H           -3.29803034815942       -3.68743507911300       -2.17995178860112
H           -3.60558851663386       -5.07282401537970       -3.22469320885782
H           -4.69718514137143       -3.68169315231918       -3.25211258174177
H           -5.54095761390115       -6.57140691076310       -2.85350880073835
H           -6.62155974627179       -5.19434273570975       -2.87915404246816
H           -6.65960607152688       -6.31167805058782       -1.50513382918550
H           -7.57657227529520       -3.98570004819649       -1.35320309262329
H           -8.40132652917057       -2.23828825499908        0.13223433865856
H           -6.88107417853227       -1.15580807705815        1.75149814605274
H           -4.51850748854726       -1.84908439442080        1.85963942230991
H           -0.77689578339719       -4.39725860858135        0.16730265152066
H            1.11155929104436       -2.84194580399124        0.05223035473628
H            4.75817574081036       -1.46389540157422        0.03904180996430
H            6.11565384029922        0.56462777918741       -2.38598203055357
H            7.43721662220064        0.98612488888985       -4.39602226325671
H            9.91100067527508        0.83209405926590       -4.30094362049994
H           11.00388944836512        0.22104258711191       -2.20784074052170
H           10.19472454842514        1.73898329350923        0.77526182220669
H           11.33497240502034        0.63637589365465        1.55222156391528
H           11.54729671326176        1.07712844692482       -0.14302176665762
H           11.48980592413644       -1.39986009190942       -0.87160740175243
H           11.34595284799960       -1.86476326338968        0.81664279269612
H           10.14300542620336       -2.41291887856117       -0.35161878250190
H           10.52132183336497       -1.19345146999068        2.67655004793925
H            9.05847268941329       -1.63731388224711        4.57670472001001
H            6.61335925566957       -1.27849315264306        4.35068333040104
H            5.68841514695793       -0.51336813228719        2.23061965110941
H            4.05577183582508        3.45600926488203       -0.17268346414042
H           -3.44926956200794        5.18044853832791       -2.02916275247313
H           -4.02834611220184        7.57634199928118       -1.97468555730053
H           -5.62430780787182        8.41307693440462       -0.28485702849900
H           -6.64898911864943        6.87708343476079        1.30675972395834
