  55
        -91.12515465
 C          0.0008771801       -0.6660003791        0.8539539288
 C         -0.0127912976       -1.8857181434       -0.0228690483
 C          1.1907883451       -2.5028423944       -0.3561303954
 C          2.4931626241       -1.9052494051       -0.0101488313
 C          3.4453652889       -2.6436713329        0.6914310500
 C          4.6733943839       -2.0921820082        0.9911846057
 C          4.9894856859       -0.7993141487        0.5920094313
 C          4.0547007930       -0.0543266804       -0.1238968485
 C          2.8191775850       -0.6168199430       -0.4149703079
 O          4.2356035360        1.2190838190       -0.5872503337
 C          5.4042011195        1.9004103736       -0.4094826895
 C          5.4395100121        3.1740372106       -0.9704496606
 C          6.5644967094        3.9676560113       -0.8571436477
 C          7.6777089313        3.4970148062       -0.1787510637
 C          7.6539566180        2.2342800832        0.3811159423
 C          6.5256757262        1.4315986735        0.2720948221
 S          6.5857217716       -0.1695948275        1.0259629900
 C          1.2033116281       -3.7307458628       -1.0221178379
 C          0.0101972906       -4.3490834641       -1.3600350394
 C         -1.1852775549       -3.7448399599       -1.0522395032
 C         -1.2321192731       -2.4967293617       -0.3993046149
 C         -2.5265370375       -1.9084590321       -0.1464421390
 C         -3.6414795874       -2.7454208890        0.2190110229
 C         -4.8761584012       -2.2229543243        0.4343775536
 C         -5.1205707163       -0.8405701628        0.2982738536
 C         -4.0252321078        0.0081144880       -0.0938885676
 C         -2.7770216011       -0.5421980154       -0.2950196178
 O         -4.1375832396        1.3397826018       -0.3034624062
 C         -5.2816064601        2.0317916876       -0.1276773101
 C         -5.2113759291        3.4099448602       -0.3471142328
 C         -6.3171327101        4.2103820375       -0.1933564650
 C         -7.5502899791        3.6450640965        0.1885657750
 C         -7.6462075160        2.2961962064        0.4038136621
 C         -6.5292085868        1.4641797838        0.2579883499
 S         -6.7255190838       -0.2429729535        0.5036497726
 H          0.0650178854        0.2522015445        0.2718010026
 H         -0.9049676428       -0.6225788631        1.4539767654
 H          0.8630817841       -0.6945500255        1.5174292311
 H          3.2122780123       -3.6463359596        1.0148913990
 H          5.4104819931       -2.6557725444        1.5427855270
 H          2.1213174904       -0.0256171444       -0.9853559597
 H          4.5600597099        3.5162861609       -1.4928440494
 H          6.5700264534        4.9519845416       -1.2984788185
 H          8.5608349522        4.1089401043       -0.0841000090
 H          8.5098128901        1.8489556752        0.9139958473
 H          2.1487072109       -4.1867134738       -1.2741822123
 H          0.0213481392       -5.2998984344       -1.8727371459
 H         -2.1113351709       -4.2108526424       -1.3523438247
 H         -3.4723821037       -3.7999578218        0.3646855062
 H         -5.7033955834       -2.8537050015        0.7242955871
 H         -1.9980958026        0.1227535232       -0.6290675075
 H         -4.2568684974        3.8197764854       -0.6391957967
 H         -6.2440461383        5.2719455808       -0.3654960114
 H         -8.4158246098        4.2766783202        0.3082294330
 H         -8.5828516707        1.8430541306        0.6919687506
