63
 energy: -96.567121881641 gnorm: 0.000040883826 xtb: 6.7.1 (edcfbbe)
C           -6.90122506756905        0.18287969857777        0.77558043049635
C           -5.79903518988019       -0.37486846098933       -0.14462358938380
C           -6.41689763596212       -1.27214936728712       -1.23378520438284
C           -4.84585316542956       -1.20639473088188        0.69308136189137
C           -5.33441935956679       -2.31006268119092        1.38048116530293
C           -4.52944411317584       -3.08971890744571        2.18970416349154
C           -3.19643106525217       -2.75194806074778        2.33870345966410
C           -2.68498390975804       -1.66169137476224        1.66628300426346
C           -3.48865971940530       -0.89059121114943        0.82103652716303
N           -2.94473458551943        0.19704229282813        0.14683237923760
C           -1.57468468233209        0.51429288599539        0.31817126448498
C           -1.23044652721947        1.67994882619745        1.04485362408531
C            0.07427423606203        2.02092712701150        1.24510601412105
C            1.10476303649831        1.20629961116077        0.72483665456349
N            2.38764706763867        1.54035647501547        0.92142950677452
C            3.32077263903052        0.75005554756962        0.42039418622388
C            4.71178439097332        1.08906935312675        0.62292570914429
C            5.03932797851136        2.24654186730913        1.33631804386242
C            6.35312948405719        2.59494575913983        1.54786355185697
C            7.36335074561652        1.78283380087638        1.04428298769546
C            7.05461638519401        0.63912016680168        0.33981710222566
C            5.72739156093924        0.25910169170559        0.10612494062933
C            5.37635577539926       -0.94277848888244       -0.63931284501338
C            6.34058226604243       -1.80439830063821       -1.17652661315916
C            5.98459558410704       -2.93593107882397       -1.87838000874963
C            4.64476277659506       -3.25159690158415       -2.07533733122208
C            3.67437388755909       -2.42406480467318       -1.55978788984408
C            4.02166902859217       -1.27402904270947       -0.84387686070107
C            2.97632240608880       -0.42869096109531       -0.31068843125226
N            1.71538548791989       -0.76737327217797       -0.50911488698074
C            0.76062146987654        0.02937101572143       -0.00433163432091
C           -0.59655916762427       -0.29436753072548       -0.20158287007887
C           -3.71950908321403        1.00991421644085       -0.67132740904308
C           -3.11516337177848        2.05000128087668       -1.38483567404737
C           -3.85821651139984        2.88670773257556       -2.19125322250662
C           -5.22261888485388        2.69320984799861       -2.31133567704134
C           -5.81633900257305        1.64185726747609       -1.63767809721109
C           -5.09174743665131        0.78385990284833       -0.82077681647095
H           -7.44676910271572       -0.62245548116558        1.25927842553911
H           -6.45788183259327        0.80940578830594        1.54786112875818
H           -7.60934994408009        0.78317696849758        0.21133645422025
H           -5.63291320940225       -1.66212960673201       -1.88090277208385
H           -7.11908630826302       -0.71239826803524       -1.84510111618146
H           -6.94548302706476       -2.11149368841310       -0.79089939483312
H           -6.37729752097150       -2.57208502092397        1.28748103667933
H           -4.94152831394196       -3.94390862190084        2.70544967524668
H           -2.55032556276384       -3.33265874554211        2.98074817934271
H           -1.64641753562234       -1.40182228219077        1.80148782599173
H           -2.02772397964553        2.29025773171523        1.44313451547138
H            0.35177130037700        2.90304780001949        1.80114093987662
H            4.22984044292060        2.85179622946740        1.71352474170212
H            6.59858395525579        3.49012823196350        2.09929791697427
H            8.39796531091239        2.04756581832736        1.20590040226743
H            7.86476067183433        0.03492912762334       -0.03468573550837
H            7.38917239988865       -1.59247903603584       -1.04569518570434
H            6.75390456757893       -3.57982574128412       -2.27876864996349
H            4.36983261824269       -4.13811190619513       -2.62683790307214
H            2.62502872892180       -2.63692336505306       -1.69232331078720
H           -0.84179479253184       -1.18685566991519       -0.75709569328303
H           -2.04858675505219        2.19890866702051       -1.31230360615305
H           -3.36696034027434        3.68572210149179       -2.72698154242176
H           -5.81732444204016        3.34419564120459       -2.93432483202680
H           -6.87810869257321        1.48895094670715       -1.75683424629649
