63
 energy: -96.518448213043 gnorm: 0.000063519311 xtb: 6.7.1 (edcfbbe)
C           -6.94701105823726        0.20804033686052        0.65569736260352
C           -5.79833878777866       -0.39393012620910       -0.17716337345658
C           -6.36142260964137       -1.35591329643749       -1.24144588262332
C           -4.88624292237848       -1.17037156000618        0.75067064158814
C           -5.39406818087518       -2.24112311463320        1.47401582363680
C           -4.61217120288135       -2.97128286952846        2.35044428912003
C           -3.28250178860207       -2.62378501531774        2.52778775174182
C           -2.75079249614838       -1.56641235746969        1.82312642246768
C           -3.53448119385469       -0.83618659574638        0.91967068144963
N           -2.96894425964224        0.20954380012868        0.21599600611069
C           -1.59441372141817        0.52196449710531        0.42677842103048
C           -1.24850762200522        1.58192689296418        1.25699624679868
C            0.08313175640109        1.89356372366398        1.46685797656998
C            1.09887496769760        1.15240434053911        0.86189684121873
N            2.38912506307950        1.42869232262091        1.04428495665217
C            3.34727288053551        0.70828520823307        0.46962138412680
C            4.72637815970914        1.02301380301243        0.67596165138790
C            5.06216425416126        2.12288873125408        1.48375629068719
C            6.37225651229009        2.46147401866051        1.70155628319642
C            7.38628245871019        1.70504103212993        1.11176159609025
C            7.07686073954960        0.62516421693834        0.31982862099415
C            5.74719588334856        0.24707624246039        0.07742454993427
C            5.38757688719064       -0.88366568775838       -0.74680644404116
C            6.33763527014826       -1.71758261310279       -1.35649658402402
C            5.96459808351584       -2.78436214351465       -2.13863791302470
C            4.61403260245694       -3.06687503639212       -2.34891919723211
C            3.65876430918888       -2.27566965450820       -1.76575747598622
C            4.02094158924355       -1.18240538039234       -0.96036079122335
C            2.99235467706305       -0.38999403172401       -0.36106553196944
N            1.70899044972803       -0.67239105378918       -0.56115629495012
C            0.73755033980049        0.04433589467598        0.00575560309470
C           -0.61076810004751       -0.23833375935265       -0.19697682243878
C           -3.69993831045444        0.97424106534743       -0.67228990531522
C           -3.06653609971617        2.00315569012564       -1.38196831969889
C           -3.77174198209117        2.79534999251236       -2.26074495762860
C           -5.12575152298691        2.57282385243804       -2.45467395585441
C           -5.75002700271350        1.54476303255501       -1.77209784940679
C           -5.06501111609176        0.72937310715946       -0.88124755433453
H           -7.50492043297449       -0.57296327515210        1.16388292937377
H           -6.54585813341900        0.88781752697973        1.40537516039587
H           -7.63407863970192        0.76147686705656        0.02235841086241
H           -5.54741821833962       -1.77927666330992       -1.82725235152349
H           -7.03452931345542       -0.83427100327903       -1.91542922029378
H           -6.90894353718233       -2.16976338307882       -0.77535971645503
H           -6.43019842434486       -2.51787945097427        1.35546309186527
H           -5.03831783858015       -3.79980584057520        2.89528561022165
H           -2.65878592022740       -3.17469744598093        3.21582231623005
H           -1.71688683569872       -1.29479101288840        1.96770047758804
H           -2.02413410679267        2.16146758965515        1.73409288492419
H            0.36400552183974        2.71470366524994        2.10746672887390
H            4.25470635719596        2.68948537983599        1.92288290196822
H            6.62061321449360        3.30877545301914        2.32346883677114
H            8.42010067828997        1.97053483156159        1.27822074406811
H            7.88395177605659        0.06307410286955       -0.12213080804891
H            7.38925592315958       -1.52732490953720       -1.21321213773574
H            6.72066676856649       -3.40778029520016       -2.59313964143863
H            4.32560517777337       -3.90518455512416       -2.96571344719143
H            2.60607588905113       -2.47061229662511       -1.90552508233445
H           -0.87939593029193       -1.06038120789144       -0.84207914196660
H           -2.01114590369962        2.17368269200789       -1.23734755241978
H           -3.26404250905434        3.58518993517689       -2.79388770121974
H           -5.68937519832113        3.19065940905302       -3.13703086217831
H           -6.80222432116169        1.37778315863945       -1.94273492544141
