  63
        -96.52854165
 C         -6.8982320345        0.1826797897        0.7698157065
 C         -5.7935743145       -0.3781997090       -0.1440163109
 C         -6.4076935940       -1.2859868956       -1.2249160723
 C         -4.8395616112       -1.1997280556        0.7006782232
 C         -5.3259868186       -2.2968172540        1.3987626362
 C         -4.5180156045       -3.0667125986        2.2139629648
 C         -3.1851653442       -2.7261477973        2.3559200678
 C         -2.6756985756       -1.6428121077        1.6719506396
 C         -3.4832434634       -0.8797517369        0.8230774666
 N         -2.9439098901        0.2012161610        0.1392460472
 C         -1.5735643895        0.5196690902        0.3077292115
 C         -1.2300025415        1.6801151780        1.0417207834
 C          0.0746814355        2.0180864732        1.2453383616
 C          1.1041305160        1.2046862444        0.7218213334
 N          2.3859279877        1.5326459687        0.9278052403
 C          3.3172170188        0.7438955103        0.4242451947
 C          4.7082674729        1.0754002711        0.6380813442
 C          5.0331786951        2.2205871456        1.3708328697
 C          6.3462552057        2.5627013467        1.5943038407
 C          7.3572779276        1.7566417595        1.0834928746
 C          7.0503845063        0.6254219857        0.3590347916
 C          5.7239506423        0.2509665792        0.1143234102
 C          5.3731900100       -0.9394409724       -0.6486012683
 C          6.3369020373       -1.7955647315       -1.1943780827
 C          5.9805759232       -2.9160990752       -1.9127945028
 C          4.6408497423       -3.2272821213       -2.1154780712
 C          3.6708926902       -2.4053406953       -1.5912650063
 C          4.0189825288       -1.2657573425       -0.8606409873
 C          2.9728846199       -0.4248113818       -0.3219328580
 N          1.7131118475       -0.7582435705       -0.5292946416
 C          0.7599681455        0.0350597754       -0.0195566177
 C         -0.5976717905       -0.2858042264       -0.2188511337
 C         -3.7199026701        1.0085802265       -0.6788240207
 C         -3.1196383772        2.0506624522       -1.3927822722
 C         -3.8662778227        2.8803753917       -2.2022946276
 C         -5.2289628269        2.6786257192       -2.3261120738
 C         -5.8191714747        1.6278240522       -1.6489580520
 C         -5.0911449131        0.7774958987       -0.8282027337
 H         -7.4374300040       -0.6202046903        1.2644119606
 H         -6.4576513374        0.8212740764        1.5332731499
 H         -7.6111060386        0.7713540966        0.1995295927
 H         -5.6219390463       -1.6768149027       -1.8685308293
 H         -7.1122546050       -0.7340393522       -1.8405104303
 H         -6.9316704786       -2.1244697895       -0.7752902330
 H         -6.3684415178       -2.5614567455        1.3094788620
 H         -4.9279535292       -3.9156367231        2.7393138802
 H         -2.5382474927       -3.3003978604        3.0020999234
 H         -1.6376592846       -1.3809541217        1.8016005066
 H         -2.0288072566        2.2876049242        1.4413205936
 H          0.3534228004        2.8952692436        1.8080055079
 H          4.2220351915        2.8207889097        1.7520915666
 H          6.5922181331        3.4477138810        2.1614844861
 H          8.3916682328        2.0165369541        1.2546973857
 H          7.8619955984        0.0256764673       -0.0207267704
 H          7.3860945460       -1.5877431952       -1.0584266326
 H          6.7497199110       -3.5559738854       -2.3200883947
 H          4.3669934750       -4.1065882492       -2.6789510269
 H          2.6214334301       -2.6144390128       -1.7274339909
 H         -0.8456149901       -1.1738294757       -0.7793169743
 H         -2.0547641850        2.2062088812       -1.3176422505
 H         -3.3797392211        3.6811269640       -2.7388827236
 H         -5.8255481246        3.3238338144       -2.9526471952
 H         -6.8798753230        1.4688038878       -1.7690451519
