  73
       -117.00852847
 N          1.4685959593       -3.5452549006       -0.0685455024
 C          1.0205080899       -2.4722759307       -0.0477750731
 C          0.4930861045       -1.2016071591       -0.0236342805
 C         -0.9151262844       -0.9653110543        0.2192425130
 N         -1.7437093625       -2.0727365686        0.4394013474
 C         -2.8522019365       -2.4112057630       -0.3050738987
 C         -3.3829141059       -1.7902390559       -1.4266092738
 C         -4.5070000992       -2.3496246117       -2.0044013361
 C         -5.0890028995       -3.5031926051       -1.4848965049
 C         -4.5498173455       -4.1409445000       -0.3810233587
 C         -3.4217474971       -3.5988402382        0.2140698779
 C         -2.6014317993       -3.9865498327        1.3306945030
 C         -2.6494226169       -5.0358889062        2.2342844631
 C         -1.6876442033       -5.0967684026        3.2277615501
 C         -0.7002343335       -4.1204859737        3.3348683720
 C         -0.6345162988       -3.0624590074        2.4488397593
 C         -1.5785411447       -3.0136349336        1.4319841259
 C         -1.4324091221        0.2974492509        0.1983176931
 C         -0.5985727889        1.4241961629        0.0013180196
 N         -1.1303125351        2.7072428847        0.0086359044
 C         -2.2605064473        3.1213227385       -0.6699120747
 C         -3.0875435812        2.4110385187       -1.5287401844
 C         -4.1566461157        3.0743580483       -2.1012148843
 C         -4.3994837202        4.4215478075       -1.8346725482
 C         -3.5638841164        5.1456114521       -1.0046611652
 C         -2.4813408887        4.5016546554       -0.4225269845
 C         -1.4219976645        4.9342639413        0.4407848813
 C         -1.0990697266        6.1518939362        1.0226068610
 C          0.0036915674        6.2190685472        1.8537753842
 C          0.7715756292        5.0862493059        2.1222780150
 C          0.4721810187        3.8643611358        1.5496615986
 C         -0.6139148583        3.7937146442        0.6884173849
 C          0.7886478617        1.2239386144       -0.2006163587
 C          1.3184899939       -0.0325312609       -0.2423541349
 N          2.6908089229       -0.2205542125       -0.4540257550
 C          3.2544749282       -0.9663215049       -1.4651798576
 C          2.6367207129       -1.6290475179       -2.5171445394
 C          3.4449252490       -2.2949761872       -3.4182417992
 C          4.8317412048       -2.2908946023       -3.2902125297
 C          5.4535950624       -1.6081921613       -2.2591433688
 C          4.6639743451       -0.9357380778       -1.3403967426
 C          4.9521913452       -0.1256307426       -0.1866765847
 C          6.1230255222        0.2638323084        0.4442661481
 C          6.0349509740        1.0556508969        1.5762732150
 C          4.7995088641        1.4447565480        2.0876975339
 C          3.6189036439        1.0689657384        1.4751126009
 C          3.7016842917        0.2944843347        0.3269198070
 H         -2.9231296659       -0.9070893540       -1.8431883234
 H         -4.9410336361       -1.8844224823       -2.8767962710
 H         -5.9690767604       -3.9096449663       -1.9602328044
 H         -4.9932107516       -5.0452898943        0.0068970330
 H         -3.4225796065       -5.7858020851        2.1642961809
 H         -1.7064672166       -5.9081384849        3.9398097775
 H          0.0271142498       -4.1892466054        4.1294560227
 H          0.1275853745       -2.3048197352        2.5440890998
 H         -2.4825203063        0.4467250617        0.4013939796
 H         -2.8961085009        1.3752987943       -1.7597242759
 H         -4.8131251984        2.5404169255       -2.7714750496
 H         -5.2474041487        4.9055494520       -2.2955939249
 H         -3.7436518474        6.1928614495       -0.8144600975
 H         -1.7020019208        7.0263794448        0.8305147774
 H          0.2720485271        7.1586949606        2.3129806138
 H          1.6139392309        5.1640422672        2.7930329330
 H          1.0591244118        2.9901701016        1.7822848668
 H          1.4240475787        2.0768152347       -0.3877254874
 H          1.5634901598       -1.6284372346       -2.6273187384
 H          2.9916315579       -2.8277474312       -4.2402851156
 H          5.4295674082       -2.8256515235       -4.0129771946
 H          6.5293103361       -1.5979561319       -2.1702479230
 H          7.0824081141       -0.0484517815        0.0608381949
 H          6.9365987432        1.3711193542        2.0794211706
 H          4.7630913332        2.0476297444        2.9827451846
 H          2.6621867981        1.3542958258        1.8854277807
  73
       -117.00841869
 N          1.4438755134       -3.5373011995        0.1024686264
 C          1.0127649243       -2.4577533821        0.1136625716
 C          0.5171416200       -1.1740145079        0.1512498648
 C         -0.8567246130       -0.9069786245        0.5232405788
 N         -1.6331518961       -1.9668897035        1.0056027757
 C         -2.8378944793       -2.3820695523        0.4797336804
 C         -3.5464211088       -1.8825400802       -0.6045796592
 C         -4.7354915970       -2.5034066361       -0.9388097319
 C         -5.2100460069       -3.5970172085       -0.2188721245
 C         -4.4969503790       -4.1125890839        0.8493814696
 C         -3.3006183694       -3.5084033102        1.2021688279
 C         -2.3132545447       -3.7761147174        2.2132776634
 C         -2.2084802821       -4.7214792344        3.2209108408
 C         -1.1065992288       -4.6777182771        4.0571752797
 C         -0.1291291097       -3.6971600524        3.9078479784
 C         -0.2150433135       -2.7419392451        2.9137856544
 C         -1.3013307985       -2.7999506321        2.0514795279
 C         -1.4007552890        0.3327553734        0.3464355364
 C         -0.6410153323        1.3963850974       -0.1982225885
 N         -1.1873434363        2.6690806990       -0.3074561172
 C         -1.0881434588        3.5053283776       -1.4022309740
 C         -0.5108102937        3.2740433267       -2.6429877271
 C         -0.5728677360        4.2806456399       -3.5880966627
 C         -1.2034862704        5.4938170007       -3.3133023715
 C         -1.8085861887        5.7217875509       -2.0913344395
 C         -1.7617596099        4.7242877809       -1.1278383636
 C         -2.2921461322        4.6054160062        0.1987925878
 C         -3.0267947168        5.4539025176        1.0146832609
 C         -3.3525810969        5.0305692222        2.2899586121
 C         -2.9407782085        3.7842559061        2.7612586335
 C         -2.2122262670        2.9193625411        1.9658643875
 C         -1.9075943190        3.3237171492        0.6728237406
 C          0.7078873586        1.1636934551       -0.5585668963
 C          1.2825816595       -0.0613044304       -0.3725917518
 N          2.6208477874       -0.2782487254       -0.7164242811
 C          3.1942540090       -0.0078839259       -1.9403185053
 C          2.6107417122        0.4873706915       -3.0976825659
 C          3.4148691556        0.6495651327       -4.2099573569
 C          4.7676418633        0.3203723554       -4.1787750133
 C          5.3494480874       -0.2006609893       -3.0362351144
 C          4.5620621329       -0.3721598839       -1.9087019316
 C          4.8136583307       -0.8888503111       -0.5900245053
 C          5.9410755988       -1.3867363406        0.0432500341
 C          5.8354224503       -1.7876209236        1.3637381047
 C          4.6308091813       -1.6795454218        2.0540808091
 C          3.4954623481       -1.1820936631        1.4445125178
 C          3.5865395698       -0.8095895721        0.1105901371
 H         -3.1760883946       -1.0459309299       -1.1775310119
 H         -5.3061989864       -2.1347133591       -1.7779762079
 H         -6.1448030204       -4.0533877903       -0.5080673949
 H         -4.8593228121       -4.9706882982        1.3946436316
 H         -2.9724264236       -5.4731939556        3.3494144160
 H         -1.0041736056       -5.4091118340        4.8447128861
 H          0.7114386844       -3.6808600150        4.5849322783
 H          0.5384160843       -1.9767241119        2.8145754451
 H         -2.4351967228        0.5040801240        0.6037270364
 H         -0.0412569371        2.3311028097       -2.8741884401
 H         -0.1295394228        4.1223062443       -4.5595339771
 H         -1.2282254749        6.2591593621       -4.0744204632
 H         -2.3138732252        6.6539264947       -1.8888435941
 H         -3.3303554947        6.4269056234        0.6592577624
 H         -3.9223846107        5.6776652878        2.9397783722
 H         -3.1886435227        3.4920378159        3.7704844455
 H         -1.8757734223        1.9688661110        2.3506120028
 H          1.3076298589        1.9866843657       -0.9175770676
 H          1.5579644670        0.7212791467       -3.1338972417
 H          2.9843272612        1.0339228107       -5.1227287343
 H          5.3658795643        0.4637768770       -5.0660001231
 H          6.3934352608       -0.4741969710       -3.0222551397
 H          6.8799607816       -1.4587478950       -0.4843946909
 H          6.7011190211       -2.1841070401        1.8723751753
 H          4.5841288544       -1.9875217779        3.0875927645
 H          2.5704604546       -1.0841411724        1.9902643794
  73
       -117.00841622
 N          1.5214121844       -3.5365405380        0.1837407980
 C          1.0650345769       -2.4681771581        0.1306343582
 C          0.5255187011       -1.2038518926        0.0707064218
 C         -0.8883995578       -0.9714534789        0.2711172429
 N         -1.7291835945       -2.0801037925        0.4441143469
 C         -2.7734310416       -2.4199818757       -0.3868872780
 C         -3.1953634225       -1.8119841132       -1.5605380031
 C         -4.2704082174       -2.3698411432       -2.2262027534
 C         -4.9092232740       -3.5080985871       -1.7407130812
 C         -4.4778418719       -4.1319045595       -0.5827853484
 C         -3.3997267749       -3.5917945122        0.1005818683
 C         -2.6824898099       -3.9675459647        1.2901291988
 C         -2.8221603562       -4.9975200282        2.2063995122
 C         -1.9476356162       -5.0515769307        3.2778499330
 C         -0.9545439212       -4.0897556714        3.4465941080
 C         -0.7977605555       -3.0511868970        2.5490502453
 C         -1.6574053326       -3.0061657297        1.4599357098
 C         -1.4104158507        0.2881501559        0.2356079879
 C         -0.5784233275        1.4179209353        0.0424608053
 N         -1.1168983613        2.6977299067        0.0492964228
 C         -2.2684203358        3.0976923904       -0.6020548329
 C         -3.1027523747        2.3813902681       -1.4493881426
 C         -4.1964243701        3.0310672911       -1.9902787406
 C         -4.4571727549        4.3710085219       -1.7050509155
 C         -3.6141665955        5.1023078357       -0.8889726486
 C         -2.5066817626        4.4724894581       -0.3393532165
 C         -1.4340083934        4.9177824660        0.5005137200
 C         -1.1170285826        6.1379743013        1.0802291927
 C          0.0055347070        6.2202184667        1.8827952448
 C          0.7986980153        5.0992189078        2.1258684870
 C          0.5043991236        3.8748154895        1.5560121193
 C         -0.6018563164        3.7893847169        0.7225235385
 C          0.8066711594        1.2185003384       -0.1704261755
 C          1.3430728751       -0.0365896254       -0.1909138154
 N          2.7075061894       -0.2254030736       -0.4413576948
 C          3.2358229775       -1.0175878964       -1.4376322939
 C          2.5818880424       -1.7509981845       -2.4185251428
 C          3.3585990999       -2.4556144719       -3.3179915850
 C          4.7495768863       -2.4198592881       -3.2601884264
 C          5.4065065280       -1.6653078406       -2.3037901721
 C          4.6487983993       -0.9542061623       -1.3872158891
 C          4.9775470273       -0.0719653404       -0.2994148486
 C          6.1711215743        0.3772692273        0.2429592503
 C          6.1254320500        1.2313988502        1.3311140014
 C          4.9100903666        1.6219701269        1.8877271617
 C          3.7075941578        1.1878661072        1.3625402658
 C          3.7460525205        0.3527939816        0.2551501630
 H         -2.6882567501       -0.9414856398       -1.9485736628
 H         -4.6196339384       -1.9167226959       -3.1420378984
 H         -5.7486511477       -3.9135466028       -2.2853835104
 H         -4.9653420221       -5.0240682494       -0.2206009662
 H         -3.5973444014       -5.7387417294        2.0849877079
 H         -2.0375875351       -5.8489178360        4.0002775037
 H         -0.2944982156       -4.1558339522        4.2980945747
 H         -0.0311555582       -2.3051629062        2.6887175639
 H         -2.4653783682        0.4316199469        0.4154210452
 H         -2.9011229947        1.3513275640       -1.6963242887
 H         -4.8583444729        2.4914044444       -2.6505831745
 H         -5.3241622558        4.8439084740       -2.1411303312
 H         -3.8068566344        6.1446730415       -0.6851929050
 H         -1.7404308690        7.0024862688        0.9095049124
 H          0.2689440510        7.1618094639        2.3406903639
 H          1.6561059548        5.1878444021        2.7755573227
 H          1.1108302461        3.0094334717        1.7702565694
 H          1.4343227716        2.0696371086       -0.3892984145
 H          1.5049409456       -1.7755749232       -2.4775979573
 H          2.8762912323       -3.0441149831       -4.0836004664
 H          5.3220970758       -2.9860707725       -3.9793865706
 H          6.4848322841       -1.6289499601       -2.2702243317
 H          7.1154942578        0.0619547389       -0.1737740505
 H          7.0450345215        1.5945324278        1.7648203810
 H          4.9072050010        2.2744315247        2.7479534985
 H          2.7685716816        1.4762659951        1.8093456931
  73
       -117.00696201
 N          1.4356242788       -3.5388444239       -0.1244551776
 C          1.0009446590       -2.4602774208       -0.0868564474
 C          0.4872891078       -1.1852591823       -0.0437200673
 C         -0.8692315644       -0.9249837773        0.3973650407
 N         -1.6663580608       -2.0206902867        0.7518139937
 C         -2.8633084040       -2.3647081838        0.1626089840
 C         -3.5508534278       -1.7368456733       -0.8668260406
 C         -4.7399163599       -2.3038762321       -1.2864235652
 C         -5.2339129492       -3.4673910258       -0.7020626032
 C         -4.5434514141       -4.1064640051        0.3134148557
 C         -3.3479974974       -3.5583183113        0.7501126956
 C         -2.3830459629       -3.9407845999        1.7465628844
 C         -2.3067308741       -4.9856901443        2.6532434980
 C         -1.2237531583       -5.0361199577        3.5138139750
 C         -0.2373954868       -4.0532492959        3.4884439041
 C         -0.2935472405       -2.9996743813        2.5966611888
 C         -1.3616387768       -2.9616467022        1.7100524899
 C         -1.3807736715        0.3391829262        0.3937429172
 C         -0.5949842847        1.4461159543       -0.0060148259
 N         -1.1292150109        2.7288775495       -0.0007047913
 C         -1.0049760778        3.6603475309       -1.0123349912
 C         -0.3882851921        3.5445019097       -2.2512917171
 C         -0.4299328237        4.6343429986       -3.1008080577
 C         -1.0775577116        5.8144558062       -2.7358667661
 C         -1.7212085046        5.9272759382       -1.5174347895
 C         -1.6967283193        4.8457523021       -0.6485394378
 C         -2.2673598997        4.6029554336        0.6439005766
 C         -3.0343205302        5.3684547292        1.5104886803
 C         -3.3967215255        4.8276106216        2.7302612649
 C         -2.9872120899        3.5463858819        3.0992263682
 C         -2.2268860480        2.7624518284        2.2516781967
 C         -1.8872144008        3.2848504886        1.0103976783
 C          0.7446245818        1.2248001039       -0.4062272859
 C          1.2711932750       -0.0324233167       -0.4400385140
 N          2.6177274633       -0.2382057972       -0.7715091253
 C          3.0894727443       -1.0691083808       -1.7624455054
 C          2.3822764303       -1.7879499059       -2.7170330804
 C          3.1082513445       -2.5291192984       -3.6292641391
 C          4.5006814836       -2.5456372054       -3.6069243052
 C          5.2106953725       -1.8087216096       -2.6747481771
 C          4.5048437788       -1.0605751535       -1.7464587467
 C          4.8936344448       -0.1776867792       -0.6787332497
 C          6.1155404129        0.2279456050       -0.1659881509
 C          6.1265993161        1.1008015685        0.9084748039
 C          4.9402924478        1.5603778455        1.4748168380
 C          3.7092123212        1.1725399587        0.9793654497
 C          3.6933842372        0.3081436415       -0.1063998545
 H         -3.1658330420       -0.8415684053       -1.3314752585
 H         -5.2955902115       -1.8357587922       -2.0851580688
 H         -6.1677613678       -3.8788836827       -1.0545905936
 H         -4.9237745466       -5.0149497756        0.7549746346
 H         -3.0775913237       -5.7405505641        2.6870500959
 H         -1.1433634303       -5.8454183213        4.2238813794
 H          0.5874588452       -4.1138419757        4.1820427394
 H          0.4697318341       -2.2370884531        2.5894924548
 H         -2.4099913888        0.4984155364        0.6781419647
 H          0.0941082791        2.6279972313       -2.5545566710
 H          0.0428400778        4.5680761358       -4.0690473637
 H         -1.0854410717        6.6458338618       -3.4246830171
 H         -2.2394496586        6.8346012144       -1.2463674503
 H         -3.3354041256        6.3682327751        1.2363189151
 H         -3.9948597629        5.4076865307        3.4169681855
 H         -3.2641785606        3.1611127204        4.0689065332
 H         -1.8940425057        1.7828305968        2.5587093177
 H          1.3661081522        2.0704846739       -0.6600998124
 H          1.3038099459       -1.7736711904       -2.7446202808
 H          2.5847673586       -3.1061536657       -4.3762953367
 H          5.0327229547       -3.1391355322       -4.3352427824
 H          6.2901582907       -1.8124887943       -2.6704853916
 H          7.0376337365       -0.1348479233       -0.5938329665
 H          7.0690577967        1.4277225472        1.3215295703
 H          4.9825301978        2.2317163383        2.3194308889
 H          2.7913754075        1.5225509271        1.4275907060
