88
 energy: -137.620271159517 gnorm: 0.000040900263 xtb: 6.7.1 (edcfbbe)
C            3.69742794471350        4.77882073669100        0.80099272885210
C            2.87625791456434        5.37152117233853        1.74820058218431
N            1.96024627324508        4.70300945021482        2.42815938035442
C            1.81617621865087        3.41382926237174        2.18246070755361
C            2.56125261926720        2.71633549539581        1.23409520494610
C            2.30187462710249        1.26767148579994        0.95372158184061
C            1.13865968289713        1.10636078972967       -0.06005055060441
C           -0.15094621739335        1.55335294102336        0.56866603139913
N           -0.95538918062309        0.84442565157562        1.31412590998783
C           -2.00441241889050        1.67120476560457        1.64219323062559
C           -3.15739250404395        1.41453159965558        2.37262683643278
C           -4.05712333799716        2.44889951269783        2.52041691086049
C           -3.82313549774027        3.70990041758513        1.96932210771516
C           -2.68183744603805        3.98298774801434        1.24312831100945
C           -1.78070206322682        2.94515411281477        1.07853530607170
N           -0.58646958709556        2.83523633367839        0.41681212310668
N            1.15434236880641       -0.21888325974431       -0.64172222627778
C            1.04006144781412       -1.36862280496147        0.24973070541205
C            2.23253132517057       -2.32725306677597        0.02707587295407
C            2.34257980479246       -3.28275657018144        1.17415270514030
C            1.74022658270444       -4.53536868904649        1.14369306552683
C            1.83604347514823       -5.35825359735524        2.25337486433526
C            2.53346087944857       -4.89554182039068        3.35883889382222
N            3.11298222164353       -3.70789562218635        3.40164912686149
C            3.01671543759891       -2.92958066228232        2.33954964484710
C           -0.24347445315154       -2.12548740828790        0.11649789269846
N           -0.45183233294742       -3.15006140857749       -0.67053492395952
C           -1.76560106379497       -3.50295900620566       -0.47070162870339
C           -2.52966328525835       -4.50790007868626       -1.05431503388163
C           -3.85425358169393       -4.59899909400634       -0.68179853903124
C           -4.41977509276372       -3.71992279970342        0.24526641228282
C           -3.67884271872463       -2.71946545578211        0.84117592596565
C           -2.34561477866980       -2.62163918115091        0.47739204090051
N           -1.33658705132934       -1.77551807500592        0.84523503671616
C            0.56658482516818       -0.36173753938437       -1.96957322267679
C            1.40616961891527        0.36314949121365       -3.04850285006416
C            2.87287170679733        0.24117743138145       -2.77514484452153
C            3.53193367406231       -0.98176740309232       -2.83236018373622
C            4.87619817175721       -1.04400458258894       -2.50685344367293
C            5.51768317236184        0.12508778113539       -2.12606779450415
N            4.91111542830102        1.29921338445751       -2.09090545691084
C            3.63184747335099        1.34963189396475       -2.41724670098997
C           -0.84145802971619        0.14946658980823       -2.00402290954746
N           -1.16329488636192        1.41382402411204       -1.98071792910835
C           -2.53085994504741        1.45181357594211       -1.86221367527958
C           -3.40004987008654        2.53091111098715       -1.75353383968009
C           -4.74017505901018        2.25552137723556       -1.58707718402667
C           -5.22221588439265        0.94576573512001       -1.53835930145740
C           -4.38002976905442       -0.14060911306855       -1.66149387542122
C           -3.03207291465814        0.13060599778151       -1.82255870400857
N           -1.92837468829955       -0.67342244662938       -1.94031467181740
C            3.53294660268184        3.42856683314784        0.53843782776576
H            4.44716297039500        5.35592507481653        0.28239986926294
H            2.95546972499283        6.42471717300586        1.98320124713248
H            1.06725052678213        2.90831959259846        2.78006847754328
H            3.18784320403793        0.80735846872607        0.51430179770762
H            2.05577778112784        0.75457510490021        1.88423034441042
H            1.32895828520232        1.79631361971888       -0.88774589037995
H           -3.33658135940754        0.44281764691754        2.80608319386104
H           -4.96719954525932        2.28424369279142        3.07771399722190
H           -4.55610020984455        4.48886550672282        2.11593048563732
H           -2.50055579591399        4.95817888523032        0.81813114560139
H           -0.15812979487693        3.53833769199165       -0.16009118995676
H            1.07999661643149       -0.99352049324524        1.27510831503172
H            3.14067330388273       -1.72950967159576       -0.06029921173252
H            2.07127937510575       -2.87571291840739       -0.89986633127098
H            1.19867195305771       -4.84854381567374        0.26312330908305
H            1.37943997186071       -6.33612681399211        2.26052755127119
H            2.63734525188246       -5.49803664104576        4.25172607346586
H            3.51151964322443       -1.96873758028785        2.42032968778880
H           -2.09399780175105       -5.18447987654220       -1.77276969475112
H           -4.47590758632649       -5.36717518489437       -1.11766280363927
H           -5.46391503282640       -3.82829267434794        0.49903125043570
H           -4.11690928167129       -2.03592951675270        1.55204768533821
H           -1.37604240500938       -0.88719830593112        1.35380800157742
H            0.56118716069413       -1.43486533887067       -2.18017736201283
H            1.11272831984036        1.41289641090403       -3.08132442238513
H            1.16236317275045       -0.08182248990371       -4.01561102429205
H            2.99818903035893       -1.87257422212459       -3.12978746123322
H            5.41362779655377       -1.97908187242005       -2.54100380068731
H            6.56164899909820        0.12871426920713       -1.84198773563616
H            3.18639233709078        2.33731718135642       -2.39555008972120
H           -3.03162062145882        3.54348843958855       -1.79213665081349
H           -5.43998717295476        3.07179582008085       -1.48755713911523
H           -6.28044358874529        0.78176372728199       -1.40062337449895
H           -4.74620605044866       -1.15551793565202       -1.62105202555106
H           -1.92085638356751       -1.68129231771960       -1.95047606227186
H            4.15796938196345        2.92887010475404       -0.18796557203204
