88
 energy: -137.507228574737 gnorm: 0.000118941430 xtb: 6.7.1 (edcfbbe)
C           -0.85886641630562        5.95404922218498        0.69476333687683
C           -1.72884145965603        5.89116935678285        1.75725526102880
N           -1.78117213864217        4.82367171885302        2.56307698113578
C           -0.97869702878445        3.78599707636015        2.33717423030155
C           -0.08110322200736        3.74662653877257        1.29080291598344
C            0.75267167367573        2.52765259581882        1.03621933751832
C            0.04500393434735        1.62017672324841       -0.00362467842106
C           -1.24366762296178        1.10439799016418        0.56945869406343
N           -1.42743172859699       -0.00558316523017        1.23505618784356
C           -2.76997641047628       -0.06050060224213        1.52547975395543
C           -3.51158645796930       -1.04372278130436        2.16843891918679
C           -4.86896849103639       -0.83301738063532        2.29300363690990
C           -5.48101642188475        0.32162880603582        1.80413944665016
C           -4.75874801300239        1.31030494847886        1.16510766935680
C           -3.39810816285999        1.09978719532313        1.02508602594308
N           -2.39327201971728        1.82229815064033        0.43686411983958
N            0.93477592528354        0.61386940107805       -0.53017773966616
C            1.64229949854034       -0.27437906219248        0.37377725597082
C            3.16723333327755       -0.15168937820861        0.15148334610977
C            3.90072972172868       -0.77486989154116        1.29656125394205
C            4.13265399859101       -0.06675553465708        2.48290825206083
C            4.79648798609028       -0.69733342245754        3.53184523394480
C            5.19146877264225       -2.00913447434698        3.37055025500527
N            4.96961974990749       -2.67609711205427        2.24289753710461
C            4.34700131574777       -2.08429038821253        1.23524765363101
C            1.21656574018580       -1.70142283036279        0.22696906561542
N            1.78188864520570       -2.59533920264625       -0.54242254078217
C            1.02282738803031       -3.73165011462804       -0.40169363373249
C            1.14925870829611       -4.98277660850277       -0.99627801489015
C            0.19361511668005       -5.93015824214914       -0.69533647785103
C           -0.86637874265672       -5.65694707513559        0.17308370398172
C           -1.00682434117452       -4.42542942636420        0.78070260045789
C           -0.05023765863318       -3.46659586779500        0.48777978249403
N            0.12244766108890       -2.16872297329203        0.88642826745555
C            0.67967497462878        0.13453093775058       -1.88119093212155
C            1.01605212538425        1.19923609290634       -2.94714591145833
C            2.40873196911015        1.70762097836984       -2.74330772927608
C            3.52457954161707        0.93958742684949       -3.10317644459060
C            4.79914637486668        1.43246157486824       -2.83525092549766
C            4.92045909307799        2.65792045484014       -2.21441539520943
N            3.86212308972708        3.39366372653170       -1.88276758229354
C            2.64658081054503        2.93116862828206       -2.14604871548462
C           -0.74647302736667       -0.30606022587577       -1.99672176562586
N           -1.76783588758305        0.50007939771090       -2.09036062487478
C           -2.88332140785008       -0.29272125580081       -1.97989562077152
C           -4.23268591479051        0.04206838416008       -1.96806940413586
C           -5.13993846050958       -0.97689087138146       -1.77057203819543
C           -4.73376999893182       -2.30122962570818       -1.59701401399403
C           -3.40040748708658       -2.65914392393407       -1.62131981646659
C           -2.48484593979975       -1.63897009709411       -1.81350807267889
N           -1.11471473466672       -1.61362833164767       -1.85085219195335
C           -0.01900656198536        4.86744616524858        0.43877486628791
H           -0.83210462388808        6.83206206302150        0.06796861883710
H           -2.40725859009704        6.69627323814311        1.99699065063538
H           -1.06977793718145        2.96281028776471        3.03350642431909
H            1.72551519374635        2.81028976303267        0.63028975129529
H            0.89901577388844        1.98246905469164        1.96921478017313
H           -0.23362870810375        2.25328221351289       -0.85269283558887
H           -3.03970586710406       -1.93473247802383        2.55220569960810
H           -5.47786162884432       -1.57875787234839        2.78199027881909
H           -6.54665886496062        0.44172894859066        1.92817777309467
H           -5.23192587798088        2.20271353442292        0.78592048851704
H           -2.49374145125437        2.68552109827551       -0.06890799529491
H            1.40471625906663        0.03347040021061        1.39479819780762
H            3.42421718370677        0.90548424519111        0.06638187832208
H            3.42385721024497       -0.65450192844300       -0.77974631310252
H            3.80502525057246        0.95789858049823        2.57608766362102
H            4.99350513972292       -0.17827566321614        4.45710616049225
H            5.69848395072022       -2.55552470872918        4.15285917313521
H            4.19394942706804       -2.68073265541962        0.34697299847103
H            1.96698229280331       -5.19307026887889       -1.66702722097206
H            0.26094810829263       -6.91134219467141       -1.14137708027893
H           -1.59236266307972       -6.43132554049614        0.37201895120465
H           -1.82726348237306       -4.21228980154453        1.44850406383639
H           -0.54336203661531       -1.53017396208924        1.33727211941337
H            1.33552607352288       -0.72753350892668       -2.03377368190891
H            0.28947794809565        2.00952310078020       -2.89531021782645
H            0.92198538798151        0.72798013772558       -3.92755977501882
H            3.39387965909430       -0.01744183085742       -3.58478228508291
H            5.67894928031994        0.86687152250124       -3.09980467556062
H            5.88366619955189        3.08263987915904       -1.97006230667555
H            1.82854727121919        3.58441785859243       -1.87229448680792
H           -4.54860494526419        1.06445491286075       -2.10049135550146
H           -6.19491830085329       -0.74857950730736       -1.74351858460883
H           -5.48283369583422       -3.06229380661935       -1.43826770561036
H           -3.07982140643373       -3.68090676008884       -1.48376653730544
H           -0.50138138557828       -2.40965737772828       -1.77672117074303
H            0.68191196337938        4.89315368225448       -0.38025490449019
