88
 energy: -137.507246721558 gnorm: 0.000115981919 xtb: 6.7.1 (edcfbbe)
C            3.09483463547138        5.11078113297355        0.73324810039298
C            2.48954405341056        5.57063387155874        1.87601171680229
N            1.86247479023644        4.73461210085419        2.71808769750488
C            1.80857627477888        3.42907687564486        2.45307055418444
C            2.37506975337631        2.87759949421894        1.32625272590592
C            2.23269745513163        1.41589305216723        1.03009071457824
C            1.07801076983511        1.20129156833010        0.01574828851881
C           -0.22383304787001        1.62144250610633        0.63519961883954
N           -1.08953781586791        0.86826664717598        1.26155458116275
C           -2.12952158791449        1.69354229773598        1.61772466102356
C           -3.33022314721942        1.40446624732839        2.25353346469372
C           -4.20712754359761        2.44962220743405        2.45623900150749
C           -3.90592306159729        3.75032859876895        2.05087918993350
C           -2.71590679878891        4.05598511998948        1.42007571566368
C           -1.83692567527877        3.00969719486821        1.20124974113686
N           -0.61188957169136        2.92589875923865        0.59322333019158
N            1.10459673887641       -0.12382748573660       -0.55102454155901
C            1.09016101734457       -1.28698376999581        0.31907252426599
C            2.34077594356661       -2.15897969687992        0.06179395931209
C            2.51386625131680       -3.15228886785831        1.16776492373734
C            1.96480489458892       -4.43071701945647        1.09723063847551
C            2.12277825619410       -5.29624160304061        2.16986976326356
C            2.82209944754436       -4.85182227990485        3.27914314485635
N            3.34873176899334       -3.64046516576346        3.35102054291348
C            3.20051646188834       -2.81678239121281        2.32864216854294
C           -0.15561593303948       -2.10105530310326        0.15805451367078
N           -0.30258331194770       -3.13475854795343       -0.63015173112186
C           -1.61537722122216       -3.51563371821438       -0.49124785405983
C           -2.32784082530928       -4.54263388809898       -1.10144535394350
C           -3.66743703947145       -4.65757783132959       -0.79540099099799
C           -4.29724936838419       -3.78234417005011        0.09340343803426
C           -3.60804483813449       -2.76170934377233        0.71653613589766
C           -2.26025666838950       -2.63840072695045        0.41843446480987
N           -1.28998040854409       -1.76589213751139        0.82944208713302
C            0.57993722226525       -0.28640443714564       -1.89896011489531
C            1.50321666463508        0.34958873591026       -2.96039059220049
C            2.89706768957867       -0.17116352267127       -2.80176387448488
C            3.24057970536871       -1.47053427790874       -3.21087184055553
C            4.53821194970436       -1.92982879385628       -2.98462789506308
C            5.43976134510176       -1.09840234635260       -2.35891044512336
N            5.11328544414766        0.13901618138475       -1.98387581734300
C            3.88175383922273        0.58747822486750       -2.20278785308858
C           -0.80029029439229        0.28899445383467       -1.97075401375687
N           -1.07308343023647        1.56447035306198       -1.97654071758506
C           -2.43636058556940        1.65794078916984       -1.84304291201544
C           -3.26024818050741        2.77322414534222       -1.74360669215306
C           -4.60639281166409        2.55473311231561       -1.54232167088835
C           -5.13772286239721        1.26695385240132       -1.45088076327783
C           -4.34098082497532        0.14491154334679       -1.56305694414517
C           -2.98730632174968        0.35872565212627       -1.75750880085080
N           -1.91696930290173       -0.49131700741508       -1.86500940981775
C            3.03960721836369        3.74597107079372        0.43086307918219
H            3.60122630431753        5.80174267207784        0.07688879304017
H            2.48957422522569        6.61289269460899        2.15562478185150
H            1.29268824906588        2.82125481293975        3.18373726752289
H            3.14935720481857        1.02748646999625        0.58258813407918
H            2.02856207599831        0.87123819761542        1.95229129587505
H            1.24807626057754        1.89019834710475       -0.81836190809598
H           -3.56309951548755        0.40061797834639        2.57259169649624
H           -5.15283490915596        2.26079134521079        2.94197704474200
H           -4.62389858165418        4.53533915760567        2.23452683596034
H           -2.48304374174234        5.06147776831747        1.10538838934871
H           -0.11634908609450        3.67281640972921        0.13738760361430
H            1.11312106712826       -0.92877338438714        1.35142800668419
H            3.21014308498948       -1.50341812641067       -0.00003093976076
H            2.21799090448937       -2.67545216767179       -0.88946336575553
H            1.41567696623192       -4.72834687757042        0.21688344420115
H            1.70949807466148       -6.29263166224580        2.14556297476817
H            2.97164775768778       -5.48149755502294        4.14566755001001
H            3.66020629808982       -1.84276022818637        2.44113803353715
H           -1.84226443685321       -5.21655727088493       -1.78939783372502
H           -4.25059341833651       -5.44240663047071       -1.25395543780672
H           -5.35034252877331       -3.91075003931323        0.29537606507399
H           -4.09452232043701       -2.08263497528047        1.39959914916534
H           -1.38436729823490       -0.85334637875372        1.29478090773346
H            0.53076237161572       -1.36289638782286       -2.08659225959390
H            1.47380735169619        1.43466262992224       -2.86679839569512
H            1.10877930744526        0.08796375048455       -3.94447386072079
H            2.51051789958893       -2.09860468959506       -3.69713117029461
H            4.83504495399987       -2.92234473661928       -3.28602532666088
H            6.45335691127620       -1.40451345285477       -2.14525080614428
H            3.69220483413136        1.60601454870067       -1.89182020736120
H           -2.85191605417325        3.76872128604502       -1.81232548396731
H           -5.27147129492443        3.39995170591811       -1.44706654661320
H           -6.19809721107776        1.14826280050924       -1.28622298735197
H           -4.74555002986240       -0.85336988316990       -1.48862932879040
H           -1.95123151875963       -1.49824659038602       -1.85114108821085
H            3.51663846538642        3.35814111563205       -0.45449495346406
