88
 energy: -137.598115545164 gnorm: 0.000057007305 xtb: 6.7.1 (edcfbbe)
C            3.25550234171499        2.33741981937369       -2.49470742895875
C            2.85934857395569        3.66548686741315       -2.44514464125007
N            1.61735723146436        4.03645924669953       -2.19094943216464
C            0.72310756879262        3.09212358661349       -1.95816833924825
C            1.00194393278057        1.73080033395220       -1.95704214453850
C           -0.08544827279745        0.71919578260122       -1.73390209917216
C            0.24314417207624       -0.29511468085843       -0.61646741771444
C           -0.72132813853614       -1.44425924045571       -0.66556267894961
N           -0.33218949616354       -2.69426729021792       -0.62498742672008
C           -1.46235530544704       -3.44768242921739       -0.82021936829402
C           -1.63546995789366       -4.82471240588865       -0.87649068294753
C           -2.90985649976312       -5.29470891080443       -1.10955865021393
C           -3.99282284520829       -4.43029357304393       -1.28470288751665
C           -3.84195340018790       -3.06010127217891       -1.22473391742732
C           -2.56557595556072       -2.57897643610307       -0.98523137645013
N           -2.05572870922636       -1.31099965953411       -0.88357226897891
N            0.47748838816816        0.28562687526624        0.69733283204052
C           -0.60687042469852        0.83407342307103        1.50144833165332
C           -1.32002180281101       -0.05314310294317        2.57670821852581
C           -2.09169456673841       -1.28578650180379        2.21173627538624
C           -3.45881845792832       -1.22957022789116        1.95270414018728
C           -4.17244559657702       -2.40521883221696        1.80276875282176
C           -3.49677530853118       -3.60923231155597        1.93358705320074
N           -2.19816864120004       -3.68054601541830        2.16028508353013
C           -1.52213725661465       -2.55420990951727        2.28895689823865
C           -1.60877898830720        1.60041791702881        0.70240981780578
N           -2.72160723467632        1.16686922731147        0.17433292728010
C           -3.33058743373023        2.26181991240432       -0.39109139119877
C           -4.52652474737574        2.36425003075757       -1.09177797329510
C           -4.88349947193128        3.61254570257285       -1.55563789008913
C           -4.08135726990315        4.73545446233999       -1.33863724241740
C           -2.89080064655837        4.65379841974414       -0.64523246273174
C           -2.52711426489971        3.40327576964009       -0.17312778977372
N           -1.44782896193114        2.94647387900421        0.54022533867282
C            1.49589810257281       -0.37700893249846        1.52538057522900
C            2.18031591078018        0.63217431039921        2.48610733159614
C            2.36853557586639        2.01033321999328        1.92266428987714
C            1.73794557275620        3.11601694528069        2.48248582260077
C            1.93950187225554        4.37185959834637        1.92989115679992
C            2.79590537818640        4.47961656663832        0.84663807499057
N            3.43280052747546        3.44311554810723        0.32980590631237
C            3.21929527561740        2.24754421367706        0.84495808803755
C            2.53396510557950       -1.13248416051394        0.74916144253775
N            3.77556726276247       -0.76432640316510        0.59526741355053
C            4.38993546927296       -1.78608444914078       -0.08250508649051
C            5.70260246537784       -1.91850558650777       -0.52066070973393
C            6.03347265628380       -3.07386202089434       -1.19608638521689
C            5.09410793595273       -4.07999544848715       -1.43756357113186
C            3.78718014164116       -3.96905371802364       -1.00929360923198
C            3.44623910403513       -2.81173989670553       -0.32749758243822
N            2.27794639601780       -2.37851644549030        0.23953535540244
C            2.31238507999901        1.35856206876077       -2.24393148850658
H            4.27751433024115        2.07677056979970       -2.71743076308365
H            3.56016738618973        4.46802282976494       -2.62668453718830
H           -0.28617680873050        3.44826332943827       -1.78672710794032
H           -1.02873850857277        1.23225533158395       -1.56827177845015
H           -0.19767643568502        0.12764541745082       -2.64942058564585
H            1.20980720461336       -0.70957181666779       -0.90945188186652
H           -0.79990682240550       -5.49214141436576       -0.74170667746613
H           -3.08117024127365       -6.35973362873465       -1.16035806982567
H           -4.97168552980675       -4.84756919432739       -1.47012029589524
H           -4.67724243920864       -2.38934044628254       -1.35733903244386
H           -2.57153906861842       -0.44368096352720       -0.73457701960829
H           -0.11826918837829        1.60369764634363        2.11489381694264
H           -2.01293933854465        0.63158874442427        3.07492660689497
H           -0.56374936527277       -0.33714817390918        3.31202894271814
H           -3.95325617521779       -0.27166680035979        1.88331416466803
H           -5.23469423949840       -2.38892165313323        1.61421120650118
H           -4.01130089455752       -4.55706541896084        1.85556922306021
H           -0.46589173546541       -2.68129625837416        2.49624355059630
H           -5.14407101493426        1.49653187203736       -1.26131003524407
H           -5.80580675502417        3.73005858038244       -2.10427628988773
H           -4.40230492060784        5.69045740548549       -1.72582109215205
H           -2.26719256271679        5.51921147679407       -0.48235482792183
H           -0.63753897260559        3.47872998094152        0.81479759179162
H            1.01662049042654       -1.14900528907372        2.15322116453910
H            3.16123525226796        0.22040753351103        2.72823374740292
H            1.60388642473335        0.70096251236094        3.41206497890949
H            1.10935799920388        3.00771190532356        3.35938976940028
H            1.45806018194432        5.24541903560863        2.34463580584046
H            2.99154549955072        5.43391383722773        0.37691364211356
H            3.76129577323638        1.42356540997301        0.40190097143978
H            6.42538747825737       -1.14029033694862       -0.33411531101138
H            7.04434734817002       -3.21027692008626       -1.55153967867819
H            5.40253049530700       -4.96546409520169       -1.97370326665308
H            3.05843485155508       -4.74288608566665       -1.19574518455573
H            1.34541668619725       -2.77910971258714        0.08287895016593
H            2.59181022898728        0.31503892380253       -2.28418088096569
