115
 energy: -179.497597863968 gnorm: 0.000047438265 xtb: 6.7.1 (edcfbbe)
O          -11.19434377408218       -2.01964006443838       -1.14460540431946
P           -9.90774229338832       -2.02681316875860       -0.43775103668576
C           -9.91200193449753       -1.05244084084214        1.10354685913941
C           -9.93634917705245        0.32956472918520        0.97588128645591
C           -9.97667818272390        1.12783816458388        2.10347259398445
C          -10.00133310405396        0.54397998013947        3.36031326749337
C           -9.99593813684813       -0.83500614217881        3.48715300318706
C           -9.95282436027240       -1.63655203134467        2.35917642027569
C           -9.31938173847586       -3.69377845092416       -0.01224869716552
C           -8.13316769569599       -3.91532656930905        0.67678807160420
C           -7.73535510353630       -5.21071628133905        0.95081564869090
C           -8.51461532846542       -6.28150764094940        0.53898115875115
C           -9.69619155745111       -6.05986387063026       -0.14904897222416
C          -10.09774115747155       -4.76498513830276       -0.42611474866948
C           -8.56853688995631       -1.28301195101532       -1.42080708925564
C           -8.73433751015222       -1.16226987325959       -2.79367605252968
C           -7.75665141524580       -0.58782890762097       -3.59792759963538
C           -6.58022147919297       -0.10491116914660       -3.05532240242905
C           -6.39272790110375       -0.20783728498150       -1.68218979887874
C           -7.38639401397477       -0.80214765091057       -0.88080759230927
O           -7.03727454229816       -0.81437133164412        0.43188785929326
C           -5.81477477991237       -0.21718477702317        0.50623959811630
C           -5.06998491706147        0.00011424667339        1.65050917300883
C           -3.84419169182110        0.62062656962147        1.50171797452487
C           -3.36008076924764        1.02394837360461        0.25025749662891
C           -2.04809775505853        1.68018082120392        0.14497240585335
C           -1.86156940438587        2.76709721790354       -0.70510164535370
C           -0.62857902395100        3.38047256957521       -0.81216520389877
C            0.45821346048455        2.91721709858387       -0.08220942585111
C            1.79858504704337        3.61583054423659       -0.14973972734310
C            2.96447652387412        2.66453128481592       -0.07074978016882
C            4.16920182441058        3.03159335602130        0.55420991826087
C            5.24684928494540        2.19729441884906        0.56864725046773
C            5.21736145935930        0.90099666324375       -0.04923279314149
C            6.31351271582000        0.02671010890897       -0.01792515380515
C            6.21384222435627       -1.35654617371629       -0.42270621403964
C            7.27311072016763       -2.20041467424588       -0.39099166046269
C            8.54665409903947       -1.76518380885755        0.06525354906516
N            9.62099181626747       -2.62839202395755        0.10741796952907
C            9.96863346159604       -3.54259574622852       -0.87347431883749
C            9.40347344828930       -3.75670696817626       -2.12299356605670
C            9.97164739524715       -4.72129478543476       -2.93485678685771
C           11.08655978384219       -5.45061603232722       -2.52527568422605
C           11.67997310914340       -5.21424409231792       -1.29940754405116
C           11.12823933757169       -4.25006059813027       -0.46849713945244
C           11.49545254006135       -3.73042294928548        0.81816752691702
C           12.51365790078464       -4.03025514210129        1.71138471615189
C           12.56057889408355       -3.35160421514248        2.91470186379213
C           11.59348073391365       -2.40235756488324        3.24080006411185
C           10.57021500051060       -2.08612479194554        2.36595421029866
C           10.54002057673121       -2.73354290140205        1.13856734530933
C            8.67675484728806       -0.41093339455905        0.47553746716788
C            7.62420285627203        0.44049139823621        0.42701873601155
C            3.98422186209007        0.56626772328737       -0.70504858285169
C            2.91957612401713        1.41565679640257       -0.71966534705274
C            1.99861811151962        4.44083711682852       -1.40881126445023
C            2.07133338461040        4.01187293475606       -2.71750702933466
C            2.28792608071824        4.95242801323105       -3.71449433847990
C            2.43937454488820        6.29629123531714       -3.40436405958029
C            2.37526767661164        6.73181312771765       -2.09110084990885
C            2.15423814536834        5.79868653403999       -1.09139021988218
C            2.03219179926669        5.95551307283450        0.34776830995307
C            2.08629474537577        7.08644172927304        1.14615443870375
C            1.93274355514730        6.94051924880277        2.51518352854160
C            1.72639512300479        5.68970421275029        3.07693770573863
C            1.67065741938177        4.55279932942338        2.28161990659397
C            1.82862001245762        4.69145391426018        0.91973712808100
C            0.27335933094231        1.83975962929249        0.77718738304568
C           -0.96003114111514        1.22977345827998        0.88865046764475
C           -4.12203014821337        0.80325986043837       -0.89076004405560
C           -5.35343850656244        0.17923615237030       -0.76422624014544
H           -9.92259363978729        0.76639681615470       -0.01460855823343
H           -9.98783309927341        2.20380396920331        2.00579004490412
H          -10.02939627652678        1.16643009341316        4.24288583611358
H          -10.02442230513479       -1.28760765442404        4.46795409210174
H           -9.94835134456132       -2.71399706956714        2.45122388026244
H           -7.53612208664647       -3.07603422995619        1.00042954722701
H           -6.81499261262226       -5.38893481037172        1.48825877767513
H           -8.19825734558712       -7.29128798489174        0.75680708569584
H          -10.30221681470061       -6.89516626490202       -0.46821646423932
H          -11.01511638031359       -4.56079312636951       -0.95936103132342
H           -9.66062015119676       -1.51860759278153       -3.22027800441110
H           -7.92455154570708       -0.51311057875566       -4.66184631775218
H           -5.82347569954808        0.34790456740441       -3.67738104492431
H           -5.44040232989600       -0.30007284363873        2.61777735010561
H           -3.24781546720194        0.82092709972209        2.37899118894295
H           -2.69771964544586        3.15011491265952       -1.27183530182924
H           -0.50924199962753        4.22850917651549       -1.47080626134427
H            4.23479073203837        3.99495878212367        1.03989621038093
H            6.13638968600149        2.51720949079089        1.08653050429398
H            5.25214133987689       -1.74938751365799       -0.70914604808463
H            7.14625041452081       -3.24283066664335       -0.64465022937047
H            8.55958722941953       -3.17774578822385       -2.46442185698879
H            9.54697764312662       -4.90733049854757       -3.90982699534445
H           11.49943336473443       -6.19870427204163       -3.18529653155520
H           12.55937138272283       -5.76077408621765       -0.99421703193673
H           13.24769486677914       -4.78422162246494        1.47074115909648
H           13.34685387824812       -3.56852867410405        3.62213411756520
H           11.63925617951253       -1.90869637438167        4.19983131301938
H            9.81072375637576       -1.37177484618085        2.64305961283954
H            9.65508017429786       -0.05124255411171        0.75935921226178
H            7.78754261385478        1.47501740131346        0.68042073865622
H            3.90127291375578       -0.37171756707098       -1.23005913663976
H            2.01262079500309        1.12379806870790       -1.23087318261080
H            1.95746528788118        2.96716495873981       -2.96572179085666
H            2.33991946675683        4.63374901249647       -4.74528334580612
H            2.61027148259753        7.00984023133964       -4.19727380334793
H            2.49523420762085        7.77800943679634       -1.85158231138545
H            2.24476894262260        8.06195004095596        0.71087852942751
H            1.97282374525859        7.81111826614661        3.15365776734103
H            1.60742724051932        5.59802524104290        4.14661920546910
H            1.50933209592238        3.58138320188062        2.72490083293654
H            1.10812708866744        1.46713256113733        1.35362603829216
H           -1.07688425331429        0.37892754903145        1.54411963623251
H           -3.75421461392166        1.09369547801871       -1.86286819678106
