59
 energy: -95.982819387196 gnorm: 0.000101732535 xtb: 6.7.1 (edcfbbe)
C           -3.33506810856381        3.12334970293288       -2.05477897233855
C           -2.41197037342011        2.15224458366103       -2.43552339546984
C           -2.33413685642195        0.93630537267595       -1.78317720316226
C           -3.20987916040976        0.70991862631706       -0.73075153509623
C           -4.17102423592955        1.67789378559646       -0.35645580485524
C           -4.22353642948358        2.89467445845882       -1.02106922681966
C           -4.93909429372397        1.09670149564034        0.71104430304046
C           -5.99856782490189        1.54950133994310        1.48396959555522
C           -6.50924225136129        0.71471797292181        2.45996212052807
C           -5.96935538143076       -0.55087724853059        2.67740630559623
C           -4.91328415831494       -1.02404515434746        1.92190893944238
C           -4.40970304262125       -0.19718857164210        0.92756830383843
N           -3.36233252021528       -0.41197755808862        0.05726254415467
C           -2.59804632329841       -1.58007041660859       -0.04601167279715
C           -3.21693167854162       -2.82939126707395       -0.19500337052920
N           -2.51050230688863       -3.94197951845218       -0.31387958015425
C           -1.20276671438635       -3.89787848695557       -0.32316642329912
C           -0.46007199202712       -2.70106759040038       -0.20582400239663
C            0.95968587379571       -2.62339792880482       -0.25896002918065
C            1.81546445455852       -3.72545798966450       -0.46369501719887
N            3.10199719306631       -3.59135862867583       -0.55710164286487
C            3.67096128570970       -2.37780055329451       -0.44074287318094
C            2.86707627978343       -1.27685569391894       -0.14122521794434
N            3.41642011109745       -0.01905170604216        0.01889777613468
C            4.64657584371398        0.29189337598911        0.57946694762865
C            5.55977477267475       -0.52094537611262        1.23483801509107
C            6.71165129676836        0.06536868362833        1.72874081324811
C            6.95134042963382        1.42878994455308        1.59005753808193
C            6.02633004986697        2.25125152929392        0.97496105100654
C            4.86392172719210        1.68484661011962        0.47360041696605
C            3.69887064792154        2.23859604506525       -0.16436629642691
C            3.32390690239246        3.52862803973708       -0.50983866403278
C            2.08905723963840        3.72216540766355       -1.10079876359984
C            1.23983730479881        2.64948263930721       -1.35644732096066
C            1.60071652714523        1.35407397828687       -1.03324514319935
C            2.82788986142944        1.15810610701165       -0.42161935024045
N            1.55588118077687       -1.40456309796197       -0.06203256979102
C           -1.21906972398968       -1.52097206474918       -0.03661279947318
H           -3.36213142994620        4.06283391728294       -2.58649344832405
H           -1.75035472781049        2.34940935654654       -3.26662020289256
H           -1.62812770288990        0.18172122546586       -2.09517799666889
H           -4.95022557933980        3.64149652584711       -0.73930379501563
H           -6.41058955210774        2.53456561569077        1.32514193581093
H           -7.33538306352459        1.04747083793713        3.07039615350990
H           -6.38336521472005       -1.17508003975402        3.45519197773824
H           -4.49108369668102       -2.00073406132613        2.10319248424386
H           -4.29151294580719       -2.92678381482671       -0.23691456722808
H           -0.71255591083964       -4.85635903304547       -0.41977695221831
H            1.41453615150422       -4.72472836806031       -0.52912984456268
H            4.72042423391179       -2.28585221524993       -0.65397642561121
H            5.37704163198287       -1.57395480274264        1.38044232338366
H            7.43709288575627       -0.55043783052685        2.23880554755172
H            7.86437083050181        1.84844327099913        1.98461030931648
H            6.19630145204606        3.31379062221800        0.89177574356386
H            3.98253972344349        4.36100741794909       -0.31396729697325
H            1.77569506099789        4.71939455572576       -1.37120013295826
H            0.27888177088153        2.83034369800189       -1.81355896667767
H            0.94939015667011        0.52148774793510       -1.24480961098569
H           -0.70933167713754       -0.58163251888283        0.11286314903005
