59
 energy: -95.982818453212 gnorm: 0.000137283078 xtb: 6.7.1 (edcfbbe)
C           -3.20336578247015        3.42415446971722       -1.76358046082146
C           -2.31113236117484        2.46548673874308       -2.23794512772462
C           -2.28356613675585        1.18576136108578       -1.71672875969623
C           -3.17806060264557        0.88220139067823       -0.70011033562316
C           -4.10836320115638        1.83978228769444       -0.23278596278211
C           -4.11056249168491        3.12068502117019       -0.76601197438573
C           -4.90789719595650        1.17800436201805        0.76225125676478
C           -5.95865028865636        1.58546328523583        1.57144724600070
C           -6.50899956210709        0.67194451663237        2.45055276711126
C           -6.01697419756988       -0.62841127715885        2.53689525178793
C           -4.97044149204280       -1.05780672627722        1.74294496390479
C           -4.42707276829694       -0.14989695286787        0.84492973490179
N           -3.37863298914668       -0.30997522211757       -0.03577391270961
C           -2.65275280670483       -1.48658739307323       -0.25478796986836
C           -3.31060257558646       -2.69164287415347       -0.53944915139864
N           -2.63963776690715       -3.80858642246838       -0.77032002791526
C           -1.33112930621625       -3.80789357425652       -0.76531636669045
C           -0.55093430115954       -2.65609456651276       -0.51551316741375
C            0.87115187723995       -2.62096366287916       -0.54943172193255
C            1.69260480956218       -3.72302094885281       -0.86447022864870
N            2.98369244773573       -3.62265669497886       -0.93537646373167
C            3.59048905234201       -2.44777322999747       -0.68739327065823
C            2.82005365884334       -1.35902079129360       -0.27640274810500
N            3.40856605351691       -0.14474382456712        0.02133290578962
C            4.64313661084342        0.06272452424994        0.61886161206476
C            5.52325642816501       -0.84594872634487        1.18795528817580
C            6.68899339833899       -0.35499337881231        1.74879889648365
C            6.97437626429673        1.00663524989701        1.75922705562761
C            6.08240353697036        1.92094760256360        1.23115789917264
C            4.90675783275744        1.45093365782479        0.66521608578958
C            3.76604240345647        2.10882183171176        0.08476047746831
C            3.43611446210672        3.44042070884077       -0.12045276618674
C            2.21301588137467        3.73776444575119       -0.69243328987378
C            1.33150661299143        2.72789194229108       -1.06698192326977
C            1.64756431567303        1.39381679333082       -0.88488406011880
C            2.86255129407880        1.09205739866946       -0.29227342620385
N            1.50463672204566       -1.45069982574441       -0.21925105696869
C           -1.27276883727191       -1.47563034983831       -0.22809870925107
H           -3.19123360514561        4.41468748714674       -2.19345232465607
H           -1.63388852868686        2.72455358758929       -3.03892077650790
H           -1.60152888645482        0.44285062706022       -2.10158671205957
H           -4.81325525741712        3.85979559039503       -0.41224776915125
H           -6.33367675560539        2.59613644363511        1.51453357866957
H           -7.32908277823904        0.96871002060506        3.08715549206331
H           -6.46122135365064       -1.31538613125578        3.24166456101772
H           -4.58527487504795       -2.06292527751670        1.82304256412974
H           -4.38726776933705       -2.74784250907032       -0.59930932616825
H           -0.87156750192278       -4.76670474000413       -0.95981360109601
H            1.26013958307633       -4.69588508011785       -1.03789131669340
H            4.64422454647147       -2.36851670588285       -0.88402401001406
H            5.30492993178804       -1.90180498339603        1.21823045497019
H            7.38910512309449       -1.04599515855725        2.19378647890006
H            7.89693757276035        1.35064580283369        2.20187690292944
H            6.28776645375819        2.97998427985059        1.26380900588480
H            4.11973403742092        4.22432988913497        0.16794899238225
H            1.93437389052410        4.76828380792618       -0.85420665764980
H            0.38073710793803        2.98897005104406       -1.50631915934112
H            0.97140347507107        0.61118082051211       -1.18894753112681
H           -0.73438029607516       -0.57498726339863        0.02392279288510
