  59
        -95.97713612
 C         -3.1962334910        3.4236899428       -1.7664570132
 C         -2.3003390700        2.4645971052       -2.2327243169
 C         -2.2746552870        1.1864822958       -1.7070966900
 C         -3.1755460767        0.8855134683       -0.6951638706
 C         -4.1103247764        1.8434776521       -0.2368294173
 C         -4.1096538703        3.1226813781       -0.7730796997
 C         -4.9164326019        1.1824697601        0.7541036065
 C         -5.9751215457        1.5884521239        1.5528984007
 C         -6.5325959494        0.6738037068        2.4271495502
 C         -6.0396867368       -0.6257570930        2.5187832797
 C         -4.9836881033       -1.0533055813        1.7362138844
 C         -4.4330406617       -0.1443984074        0.8434174586
 N         -3.3769745263       -0.3038093046       -0.0272569453
 C         -2.6477395221       -1.4795542284       -0.2380634462
 C         -3.3106634011       -2.6842040874       -0.5323364459
 N         -2.6346906170       -3.8008943104       -0.7497882181
 C         -1.3293976248       -3.8093925261       -0.7325645094
 C         -0.5434861570       -2.6537590342       -0.4905470805
 C          0.8712991478       -2.6209447630       -0.5272534215
 C          1.6990312868       -3.7323658024       -0.8374276900
 N          2.9841700780       -3.6250772145       -0.9274959819
 C          3.5912143016       -2.4514316498       -0.6982221194
 C          2.8170334761       -1.3607291241       -0.2762113724
 N          3.4084651419       -0.1454310018        0.0187723434
 C          4.6512101357        0.0601787210        0.5983806394
 C          5.5409855132       -0.8505792677        1.1494160747
 C          6.7154681997       -0.3615266925        1.6934062800
 C          6.9997890797        1.0002017243        1.7064671752
 C          6.0984409443        1.9166197418        1.1977696908
 C          4.9145642847        1.4485128294        0.6481568136
 C          3.7644562325        2.1081200719        0.0883771189
 C          3.4297601806        3.4402625375       -0.1044940812
 C          2.1977126300        3.7388553876       -0.6568271524
 C          1.3127223687        2.7296103687       -1.0249414720
 C          1.6330848946        1.3950500428       -0.8545322461
 C          2.8567128463        1.0918006255       -0.2802000398
 N          1.5090101052       -1.4516016557       -0.2066308402
 C         -1.2711193865       -1.4708229396       -0.2034882942
 H         -3.1825169300        4.4129753698       -2.1990830175
 H         -1.6187451520        2.7218751500       -3.0305174434
 H         -1.5899530289        0.4424023874       -2.0845425393
 H         -4.8145668363        3.8626538185       -0.4258834801
 H         -6.3525269455        2.5976739658        1.4913512526
 H         -7.3600418279        0.9692906512        3.0546946639
 H         -6.4907568417       -1.3135712887        3.2183067134
 H         -4.5971872579       -2.0575405597        1.8197143043
 H         -4.3855981421       -2.7348756137       -0.6132251072
 H         -0.8709436039       -4.7728049081       -0.9048359949
 H          1.2702745543       -4.7113581110       -0.9858831242
 H          4.6404051340       -2.3696747477       -0.9180556485
 H          5.3236666482       -1.9067273689        1.1780735889
 H          7.4233284824       -1.0541748595        2.1233506781
 H          7.9292194105        1.3427804885        2.1356751195
 H          6.3036525051        2.9757075909        1.2323922742
 H          4.1163173397        4.2237849147        0.1781487411
 H          1.9150811514        4.7698769003       -0.8083118948
 H          0.3556126229        2.9917505806       -1.4497912093
 H          0.9545941006        0.6120837772       -1.1521918373
 H         -0.7307790735       -0.5737049387        0.0567568568
