114
 energy: -178.058899977061 gnorm: 0.000049328808 xtb: 6.7.1 (edcfbbe)
C            2.72813223315591       -1.68274581156639       -1.92381989440005
C            1.99219202897591       -1.08068937628172       -0.91711435683283
C            0.83141167761751       -1.66927869932133       -0.44909327558668
C            0.38936747864658       -2.87274920610040       -0.99483880461722
C           -0.81299386308221       -3.55970594890613       -0.54445681055643
N           -0.88017688806174       -4.86330301049593       -0.44918572108488
C           -2.12986764482778       -5.14584679284537        0.00659911466996
C           -2.66986301475979       -6.42488746527336        0.31838593104762
C           -1.90756890153315       -7.58971875241696        0.17581222275533
C           -2.43341793799897       -8.80943333855521        0.52226719456256
C           -3.73235631915601       -8.87663728723204        1.02358271223831
C           -4.49326101662414       -7.73891752219454        1.16050785720551
C           -3.99582417264568       -6.47500620926712        0.80553406913152
C           -4.78654679249288       -5.25938531016608        0.89539165992119
C           -6.13279587451167       -5.29043925962317        1.28799851694870
C           -6.90892854776876       -4.15651668009955        1.32842090759318
C           -6.37125215185287       -2.93140504312837        0.94706270998286
C           -5.05586043011686       -2.85703735359722        0.56017861976467
C           -4.23340616654794       -3.99347424449147        0.55363771160834
C           -2.85850937292055       -3.97148118809310        0.17923089113238
N           -1.99334305034317       -2.95135615493630       -0.16646839654127
C           -2.21489091682590       -1.56307533370535       -0.12012251236728
C           -2.03677768904243       -0.79269961639168       -1.26445401750458
C           -2.23255076093587        0.57432978182302       -1.21301349176244
C           -2.62932763156308        1.17711855095487       -0.02478613267080
N           -2.82376542750904        2.57576780359979        0.01226497892802
C           -1.81145395858600        3.50975971776630        0.01547391497860
C           -0.39993674956470        3.16563198820389        0.10251689289293
C            0.06995526673373        2.20639860378547        0.99697208865366
C            1.41410696116936        1.90086067486930        1.04921288938157
C            2.32522456310685        2.52663770756250        0.19916153601493
C            3.73869001088352        2.12650982223676        0.20508740516464
C            4.41524849802390        1.87706549485713        1.39827833279753
C            5.72515499243521        1.44597564936591        1.39588323894860
C            6.39971497234043        1.23932459945278        0.19169406650320
N            7.71671849114864        0.77133114294055        0.17869448060213
C            8.11172030826401       -0.15315376381953       -0.79789402792195
C            7.23934331964838       -1.16261806125178       -1.20544883473004
C            7.62743597220588       -2.07013883351274       -2.17223216170179
C            8.88912785260165       -1.99366143588708       -2.74012702036211
C            9.76158344791577       -0.99638031432636       -2.33462219954093
C            9.37893261700360       -0.07822452291165       -1.37532855053384
C            8.63076680663002        1.20953130481696        1.14365406681513
C            8.59770760443523        2.52736165321655        1.60073315223991
C            9.50053730371850        2.95713496830822        2.55409340618053
C           10.45421486743205        2.08868805839140        3.06041058962927
C           10.49420559105041        0.77989511840420        2.60697418431211
C            9.58939153709912        0.33794499254773        1.66096437693541
C            5.73066866932842        1.50056071002087       -1.00526839855095
C            4.42447955092001        1.94090946035745       -0.99511469799301
C            1.85394911226333        3.50625072338396       -0.67431253792693
C            0.51410396122990        3.83178998044206       -0.71292528054969
N           -2.26720329580810        4.73370698479710       -0.06858454410037
C           -3.62272382397724        4.62440603565473       -0.12832113151541
C           -4.58239006462679        5.67213130732396       -0.21085316131054
C           -4.19177012080515        7.01591883701495       -0.22325537706900
C           -5.13332479170089        8.01242765788922       -0.29166923737946
C           -6.48443422432399        7.67411851051240       -0.34619488624068
C           -6.87994114145900        6.35681561685468       -0.33789615134025
C           -5.94790077901131        5.30882321013678       -0.27391351494991
C           -6.33556540437392        3.90834334886979       -0.28245188155755
C           -7.67793123534515        3.51503564955794       -0.38775501030694
C           -8.05041314161820        2.19195414428629       -0.42359532018524
C           -7.08495680540836        1.19185092063360       -0.35888089841011
C           -5.76011933996031        1.53376703849336       -0.24555666658571
C           -5.35988654491566        2.87692808918959       -0.19845939491748
C           -4.00099145188618        3.28424039643823       -0.09395243984090
C           -2.80494961727750        0.40765195569815        1.12264470239454
C           -2.58773300937490       -0.95503338084558        1.07785322079382
C            1.15037992280388       -3.48587683245768       -1.99171187193965
C            2.30891794121192       -2.89270239621839       -2.45395373036934
H            3.62947368199381       -1.21242959470063       -2.28680051830912
H            2.32536587797878       -0.14765071932299       -0.49083158770611
H            0.28305112651856       -1.19806755493682        0.35277265362215
H           -0.90209206947157       -7.49173758349938       -0.20436738470099
H           -1.84740194457963       -9.71040687079112        0.41530970047246
H           -4.14732569366989       -9.83308533218521        1.30731957937752
H           -5.49142919191170       -7.84059419624325        1.55560146769816
H           -6.58883557422813       -6.22807594102977        1.56062580170187
H           -7.94117062084222       -4.22042359879813        1.63985171461261
H           -6.98501326396550       -2.04312650371619        0.95431902094587
H           -4.65304466333022       -1.91015519170340        0.23952378474814
H           -1.74372233170183       -1.26657534555641       -2.18862753048189
H           -2.09248588891099        1.17829176350569       -2.09660130719492
H           -0.61412072383763        1.70954402589716        1.66804223384759
H            1.76124862988384        1.14885653026269        1.74295998036207
H            3.91014657631101        2.03208541493240        2.34044244248368
H            6.23388835710485        1.25466316237557        2.32944625116832
H            6.26012875963716       -1.23226455799249       -0.75427800938378
H            6.94350455882115       -2.84960423051907       -2.47544523149031
H            9.19101224450668       -2.70683815542780       -3.49245509077994
H           10.74575349395677       -0.92648380278179       -2.77488250039164
H           10.05775803794042        0.70387013704787       -1.06741279605206
H            7.86227133924868        3.21017978721286        1.20056444392820
H            9.46452882973422        3.98112288110850        2.89702498976155
H           11.16069386872008        2.42901896272706        3.80256964676654
H           11.23043829432087        0.09365948605897        2.99996794897999
H            9.61721501054067       -0.68613059183324        1.31778732162829
H            6.24519551833340        1.35181897009296       -1.94346634456000
H            3.91761796445504        2.12296146051596       -1.93146658134108
H            2.54943710688674        4.02584400435817       -1.31670314339594
H            0.15140569439879        4.59779325439933       -1.38162603016668
H           -3.13586355680833        7.23498402528965       -0.17465660710145
H           -4.83461294930904        9.05042647603422       -0.30046308015173
H           -7.22994500685347        8.45477639380043       -0.39570383407187
H           -7.93622038146790        6.14381356911857       -0.37958333536778
H           -8.45201087384637        4.26241294795245       -0.45077228866596
H           -9.09453989283887        1.92864000567419       -0.50874928469555
H           -7.37509360401160        0.15281784765346       -0.40578468208979
H           -5.01130880480884        0.75909796138752       -0.20158287244067
H           -3.11532830072332        0.88031355865034        2.04306126914319
H           -2.71427537632412       -1.55685138482789        1.96554368252442
H            0.81180394097047       -4.42939624230620       -2.39171440063477
H            2.88504997106340       -3.37406780577750       -3.23039155901223
