114
 energy: -177.975556957805 gnorm: 0.000072253353 xtb: 6.7.1 (edcfbbe)
C            2.49097179807008       -2.09091646494889       -2.11673673165659
C            1.78925762553762       -1.39332984453505       -1.14822578470355
C            0.63506186320619       -1.92209302689605       -0.59877919021996
C            0.15610406204750       -3.15696440798304       -1.03226648092822
C           -1.05261016621378       -3.78621052604262       -0.51937158227437
N           -1.14419560489674       -5.08525108072949       -0.36954045773863
C           -2.39626764144456       -5.32604016619552        0.10035116475888
C           -2.96020637749519       -6.57918233731202        0.46987281071314
C           -2.21634658590918       -7.76202896822719        0.39521116947680
C           -2.76457606270242       -8.95350533155184        0.80083887771806
C           -4.06737998628538       -8.97360606150618        1.29576327577693
C           -4.81114222914584       -7.81832975168020        1.36479457065511
C           -4.29170162918576       -6.58367872453232        0.94497985722032
C           -5.06777248128344       -5.35517459889970        0.95147978188446
C           -6.42721173151234       -5.35076944475256        1.29577978565352
C           -7.19165421986111       -4.20940831157385        1.23839879831241
C           -6.62567089304016       -3.01416194587064        0.80638240087856
C           -5.29439487663984       -2.97188862219278        0.47344487910685
C           -4.48644748023408       -4.11561875961738        0.56254960058797
C           -3.10394828244720       -4.13196722649764        0.22048015798095
N           -2.22098435051154       -3.14154916028511       -0.16308313684433
C           -2.41203158790414       -1.74929079085626       -0.11476895949038
C           -2.18440939597599       -0.96889267708622       -1.24567343326654
C           -2.32438855587896        0.40174525363999       -1.17507854654253
C           -2.72275133116040        1.01066766239856        0.01392908062362
N           -2.82349343918474        2.41358462917243        0.06031989884144
C           -1.72819246123936        3.26126176911242       -0.20598971354855
C           -0.37188694651340        2.91948495466235       -0.09058237931548
C            0.12004651160913        1.79034673727809        0.62187102824874
C            1.45418760632860        1.55628600915345        0.74254718772256
C            2.42869825692886        2.37111645331183        0.10173440899215
C            3.82038405740151        2.05240274172251        0.14394951020031
C            4.37137258679870        1.21998544093488        1.15105252083553
C            5.70344920974145        0.91274234011933        1.18602330538243
C            6.57784393196338        1.38510896529087        0.19153944628734
N            7.92583593084164        1.05351976377124        0.21243925671069
C            8.60662875729174        0.81544265942590       -0.98571058707728
C            7.96475265949430        0.16234675036790       -2.04053551020645
C            8.63977173007772       -0.07580070538841       -3.22134181491670
C            9.95792564279929        0.32824810098354       -3.37003637298935
C           10.59912326474325        0.97702356906343       -2.32553273346462
C            9.93313969014517        1.22328741996305       -1.14096820200344
C            8.60058383253501        0.94500454144739        1.43256798392267
C            8.30885456557142        1.82563211028220        2.47687361914050
C            8.97384592507042        1.71592802571239        3.68212934434451
C            9.93654487895182        0.73485037596368        3.86566311416341
C           10.23070382701565       -0.14049602195792        2.83105691215385
C            9.57019444580936       -0.04203886193728        1.62217936627663
C            6.04995827302969        2.20128771887280       -0.82472474951902
C            4.72422599823775        2.53714924251632       -0.83532812399667
C            1.93266202950617        3.51481256553646       -0.58695691152607
C            0.60533466256641        3.79634747653423       -0.64936480870561
N           -2.14617498543800        4.50267336574878       -0.49690981561033
C           -3.47475403432887        4.48870333296153       -0.39356915892090
C           -4.36822730335736        5.58536615921962       -0.57589281358778
C           -3.88326389006275        6.86188673399004       -0.87289944278333
C           -4.75063705007140        7.91637481332114       -1.04363817628518
C           -6.11870467465493        7.69764740494945       -0.91438812887287
C           -6.60792708071783        6.44263472606893       -0.62197293001549
C           -5.75561311450495        5.34237054287506       -0.44519060894806
C           -6.24057984595359        4.00607464511671       -0.14841254533946
C           -7.60737116147685        3.72908084213838       -0.04381091440909
C           -8.08426258275667        2.46614745194810        0.23031247871150
C           -7.19260759585699        1.40820095718007        0.40614479077369
C           -5.84469913895075        1.63084801718418        0.31235349037295
C           -5.32910940322156        2.91635429144453        0.04185039997759
C           -3.95270373480679        3.19482130759088       -0.06470506347874
C           -2.96393241092276        0.22623763266988        1.14368297958559
C           -2.79598246554282       -1.14160810633887        1.08176368124562
C            0.88324666562865       -3.86378426837857       -1.99325464369782
C            2.04019688118973       -3.33482926981008       -2.52998741609727
H            3.38871013545787       -1.66757432421172       -2.54210046831104
H            2.14022307394447       -0.42807002670630       -0.81733419478881
H            0.11853600600322       -1.37478487448647        0.17499183908286
H           -1.20626584616965       -7.70002363707317        0.01964205402323
H           -2.19233263032032       -9.86797691159851        0.74613113783582
H           -4.49919997461175       -9.90683815853709        1.62778869894609
H           -5.81290309568414       -7.88186385194359        1.75907827856634
H           -6.90463689068077       -6.26748110134821        1.60151948082946
H           -8.23652720573461       -4.24559225538625        1.50976453239722
H           -7.23243284525255       -2.12502570105990        0.72420934319212
H           -4.86823369532079       -2.04931072196308        0.11296865247825
H           -1.89403493257605       -1.44056101574599       -2.17197145936667
H           -2.13463831000967        1.01353855871357       -2.04438898570808
H           -0.57537612467101        1.13210567824520        1.11799852761756
H            1.77325315782525        0.69646173337426        1.31211217182223
H            3.73416028304096        0.83649785717892        1.93217574468616
H            6.09168471108132        0.28008345176638        1.97105982661626
H            6.94346564091948       -0.16656904522527       -1.91692194602828
H            8.13667540090057       -0.58839824006807       -4.02779439201989
H           10.48257769856464        0.13800325785877       -4.29393122646052
H           11.62361810952268        1.29971448769940       -2.43717817243872
H           10.42867285483194        1.74073961906182       -0.33288369926994
H            7.56958377290868        2.59888297954139        2.32793439437531
H            8.74501991406045        2.40578396309093        4.48094940368587
H           10.45450742641412        0.65328140713929        4.80911728493165
H           10.97438363320444       -0.91116111522973        2.96992228683514
H            9.78885139427221       -0.73359541307691        0.82192855076235
H            6.71057069278231        2.58014029948879       -1.59113702844832
H            4.35427632657247        3.16304254168173       -1.63204728414807
H            2.63285767964126        4.20701514168502       -1.02939024202271
H            0.24639026364108        4.68662271966906       -1.14232585921311
H           -2.81475242703587        6.98755984901009       -0.95993830249287
H           -4.37658416491575        8.90296434131448       -1.27352334698872
H           -6.80804710640674        8.51974051163418       -1.04371265796179
H           -7.67578607654591        6.32460214662854       -0.52999956222423
H           -8.32591876003513        4.52101852806445       -0.18098049027998
H           -9.14784399238897        2.29489477941631        0.30502600951222
H           -7.56580858430242        0.41719222061883        0.61691308733827
H           -5.15988593914282        0.80906814145591        0.44128423710314
H           -3.25809446916162        0.69845119235980        2.06983122991590
H           -2.96125821259360       -1.75029799587880        1.95861498455527
H            0.51689636690588       -4.82934509262658       -2.30683542745831
H            2.58856137296557       -3.89133099381063       -3.27581297365309
