114
 energy: -178.058194678484 gnorm: 0.000048126468 xtb: 6.7.1 (edcfbbe)
C            2.78802176809238       -1.91096841787921        1.92139135686454
C            2.02318875017507       -1.40427636642957        0.88422170258053
C            0.75905408368428       -1.90809371308455        0.63439406025194
C            0.24868560920567       -2.94111513771359        1.41809150780460
C           -1.03592388057678       -3.57588554979036        1.16577618115732
N           -1.23573045742098       -4.85246210607315        1.38832966340713
C           -2.51844542269137       -5.10558326468085        1.02065869355258
C           -3.20885141956576       -6.34949149185051        1.06419219394696
C           -2.57869082099647       -7.51395022518220        1.51710218641442
C           -3.26103904057574       -8.70452820497127        1.55019849350693
C           -4.58854205041399       -8.74354080790117        1.12718219417174
C           -5.21790626011629       -7.60498970320379        0.68041099813410
C           -4.55486346941033       -6.36837589385961        0.63222977487707
C           -5.19268221842845       -5.14807252559401        0.16714014072513
C           -6.52758782571612       -5.13611357320900       -0.26352885143940
C           -7.14226585617281       -3.98973444624219       -0.70916933437216
C           -6.44006213986799       -2.78914479534737       -0.74065142913202
C           -5.13260422870387       -2.75670819828775       -0.32229545516888
C           -4.48373356975347       -3.91484009211124        0.13047215333444
C           -3.12822681156996       -3.93885822098100        0.56544004806987
N           -2.15893969581604       -2.96075222711627        0.65676524158737
C           -2.33387969244160       -1.57551866586219        0.43871916036031
C           -2.22183157520980       -1.04373276822165       -0.84275427563992
C           -2.43568334879218        0.30536359521123       -1.04874080007230
C           -2.77525333981166        1.12771369414113        0.02095220019471
N           -2.99821895843375        2.50132379662279       -0.21564356471294
C           -2.01039984036625        3.39576717330646       -0.56552332237344
C           -0.59367686651590        3.06133686301580       -0.54171263059614
C           -0.03521164406861        2.37554810103922        0.53499289444951
C            1.31258751300605        2.08453022675655        0.55429698110470
C            2.13816214739952        2.44613940136435       -0.50926242623066
C            3.56125594878276        2.08341189483801       -0.50104533289567
C            4.32213237324118        2.18784228583613        0.66297068720124
C            5.65127545359255        1.82156511548647        0.67896764906049
C            6.26417430100104        1.32863078515875       -0.47438381245944
N            7.60676337969186        0.94180363555012       -0.45939142415446
C            8.01987654034691       -0.17588925280186       -1.19678735898440
C            7.20537702137012       -1.30510755190669       -1.28428504222681
C            7.61752424287129       -2.40651581945916       -2.00959764822659
C            8.84578209598794       -2.40529769689277       -2.65099346305592
C            9.65943301061113       -1.28683266075755       -2.56583958736289
C            9.25212016118472       -0.17719287593553       -1.85022439495354
C            8.53826119896462        1.66709943592537        0.29420129743810
C            8.44388480043545        3.05591980848931        0.38749037783448
C            9.36368931406026        3.76807618952597        1.13293832174465
C           10.39465333118519        3.11359305614478        1.78781353270100
C           10.49530062045019        1.73464621989395        1.69537852875770
C            9.57467303870312        1.01272898998406        0.96024464999650
C            5.50806429342058        1.22671121235382       -1.64335330931265
C            4.18136257234713        1.60200869199769       -1.65360735122105
C            1.57724881526324        3.14639245632100       -1.57742562260914
C            0.23438526270135        3.46353285589219       -1.58806549781288
N           -2.49217582645848        4.57200277021588       -0.87280937359253
C           -3.84234189349509        4.47154389536077       -0.72469130159834
C           -4.81893377096281        5.48846786102666       -0.91723428808611
C           -4.45268179716366        6.78375850104649       -1.30033392332352
C           -5.40816209055768        7.75497852376916       -1.46695719613481
C           -6.74839330177646        7.44049697820507       -1.24811761467790
C           -7.12021615696413        6.17036444888851       -0.87361588208389
C           -6.17387887765432        5.14845125413678       -0.69652760850946
C           -6.53764757637718        3.79507269886095       -0.31244839278751
C           -7.87443520895336        3.42006499209830       -0.11204120693258
C           -8.22888179421249        2.13983003544199        0.24298254538689
C           -7.25057206896586        1.16388474315429        0.40699291158855
C           -5.93009739491785        1.48901438030910        0.21768459877328
C           -5.54555518599204        2.79212474607133       -0.12995166708065
C           -4.19151172840681        3.18367276153137       -0.32458285854148
C           -2.86636588870474        0.59986737848211        1.30524566030864
C           -2.64073343147406       -0.74750018889111        1.51362162097280
C            1.03323288730542       -3.45614896499610        2.45261366301712
C            2.28836809754403       -2.93947844106781        2.70550834602610
H            3.77293752416257       -1.51197053562954        2.11346917770309
H            2.41401519369925       -0.61643978424735        0.25779159000004
H            0.18649131165321       -1.51090974395912       -0.18899812358647
H           -1.54918882075125       -7.44062239714092        1.83318632612472
H           -2.77766332911287       -9.60523733454366        1.89902119130339
H           -5.13018882285211       -9.67823993018762        1.15010635292158
H           -6.24557114025589       -7.68508838368368        0.36388443247563
H           -7.10216905487504       -6.04787567732313       -0.25135522913128
H           -8.17173535613560       -4.02193658047655       -1.03457713966226
H           -6.91745983674425       -1.88666859142528       -1.09270825707980
H           -4.59479657311699       -1.82317904713019       -0.34535596127328
H           -1.98669028423949       -1.69318672764422       -1.67327865800967
H           -2.35566951621523        0.72602580329381       -2.03980690112579
H           -0.65206381452516        2.08665913163776        1.37250530536965
H            1.72555850966985        1.55023895918735        1.39659677324598
H            3.86786481894578        2.57236239354337        1.56427403510328
H            6.22576991022872        1.90901989580059        1.58966032817613
H            6.25098783750454       -1.31414458056332       -0.77809040880383
H            6.97797046996057       -3.27551988247997       -2.06594789917781
H            9.16647787421022       -3.26947681137169       -3.21329676344587
H           10.61607553897180       -1.27424059730525       -3.06779663463833
H            9.88494030295875        0.69660745232892       -1.79260430509180
H            7.64750069283511        3.57058586547841       -0.13043140610028
H            9.27990091028358        4.84348458405276        1.19478669143097
H           11.11400972266691        3.67393462094674        2.36600420129233
H           11.29243701071048        1.21490805769575        2.20706542627745
H            9.65097734178485       -0.06317365306881        0.89786603456926
H            5.97101361237039        0.85080601659828       -2.54407605662006
H            3.61017379061214        1.50380709566956       -2.56521142235708
H            2.20671553228301        3.46195421930640       -2.39641459663944
H           -0.19385569698444        4.02027914440032       -2.40801374044963
H           -3.40373871730089        6.98684796398324       -1.45434561049291
H           -5.12830526159730        8.75569465819719       -1.76174638432071
H           -7.50422023768886        8.20231859350461       -1.37455159324570
H           -8.16868191446800        5.97480339664791       -0.71484455686401
H           -8.65961774380583        4.14744722812002       -0.23899614454847
H           -9.26939448320624        1.89069970558889        0.39120352088461
H           -7.52608044893551        0.15646716439268        0.68192799966226
H           -5.17512609406244        0.72869254725642        0.33676600466623
H           -3.12868483108207        1.24390895903338        2.13171350232381
H           -2.71659033641804       -1.16684099020478        2.50558006366239
H            0.63740168990329       -4.26802000232361        3.04306411373704
H            2.88256751288149       -3.34336481077822        3.51195875350094
