114
 energy: -177.978448250398 gnorm: 0.000065984589 xtb: 6.7.1 (edcfbbe)
C            2.09027540187793       -2.38208504835747        2.19706848425169
C            0.97972401423143       -1.63383607920648        2.55224404918193
C           -0.28112488611569       -2.00521663508966        2.12170394819450
C           -0.44578761510259       -3.14120926939743        1.33193468809137
C           -1.75283628459531       -3.60710728202646        0.89019510767762
N           -2.07939985393763       -4.87640429240400        0.84709603287370
C           -3.36374900124263       -4.91721536695294        0.40240125862828
C           -4.18772950458964       -6.06149318241206        0.20891062184912
C           -3.72509779819974       -7.34879885688664        0.50401708956339
C           -4.54223473293002       -8.43795641257425        0.32981550225769
C           -5.84052340218356       -8.25045520253624       -0.14132183898124
C           -6.30485037074849       -6.99019574910417       -0.43843802777433
C           -5.49822017242067       -5.85216566283825       -0.28016602335184
C           -5.95447754461071       -4.51132693091449       -0.60616762502835
C           -7.22407410487611       -4.27776389487366       -1.15468048590930
C           -7.65188498201026       -3.01572738291031       -1.49399635850328
C           -6.81620360058157       -1.91952541536233       -1.30323399816288
C           -5.56857806360992       -2.10357621110348       -0.76033538128372
C           -5.11697259155731       -3.38080899349323       -0.39782856327814
C           -3.82687474322785       -3.62766979343923        0.14905527085462
N           -2.78373469987849       -2.79268755587851        0.48201770632080
C           -2.71520596282121       -1.38695884730462        0.35802444884518
C           -2.02091100001533       -0.82228378143910       -0.70836298018371
C           -1.93072157540733        0.54821526265368       -0.82593961125685
C           -2.51681993237601        1.37666752628772        0.13644233715288
N           -2.37808999306570        2.76243878589711        0.03903332802051
C           -1.15186941527614        3.45030832698892       -0.08373933310111
C            0.14325582904849        2.91370977661148       -0.01070263549458
C            0.48981038738266        1.63114009753914        0.50263970806633
C            1.77191449736797        1.17795869719922        0.46483071540408
C            2.84310715281909        1.95418194423438       -0.05463814983117
C            4.17423874474633        1.44131246055240       -0.12737867896355
C            5.30311981996048        2.28747877773118       -0.26436715761599
C            6.57637622294623        1.79204756756195       -0.33056858425073
C            6.81580120234841        0.40697766381817       -0.28558858547886
N            8.10458679772507       -0.09736217091222       -0.37060237402132
C            9.18027881929538        0.61640522232591        0.17144488894432
C            9.03702365613402        1.29925958398972        1.38105024183526
C           10.10312414841235        1.99840301124760        1.91225288216468
C           11.32280633732114        2.02625870757646        1.25333797689254
C           11.46991526143012        1.34867899346702        0.05250174868294
C           10.40953860697600        0.64942217151221       -0.48992622580164
C            8.34386036023265       -1.32156610045591       -1.00618791346472
C            9.30183848944252       -2.20310007721973       -0.50114648695389
C            9.53890683637223       -3.40685084102551       -1.13547963863956
C            8.82700431034194       -3.75254212706840       -2.27413645417556
C            7.87354373044137       -2.88098334605401       -2.77818234562793
C            7.63107719547978       -1.67272157330749       -2.15460317392402
C            5.70901589368974       -0.45095696114204       -0.15624428891318
C            4.43874147005545        0.04923877238795       -0.07255817496547
C            2.50704996042351        3.27366925948205       -0.47436276456496
C            1.22854457318603        3.73065585422334       -0.45154179032198
N           -1.36643465231200        4.76885232189644       -0.22697390211526
C           -2.68215585900111        4.95390601359160       -0.15685616291865
C           -3.38199140437572        6.19680873326201       -0.18156684000534
C           -2.68919431775972        7.40838968457940       -0.24838293610271
C           -3.37032776237610        8.60390920450059       -0.22197018988747
C           -4.75764829671339        8.59291020436656       -0.11812869559424
C           -5.45131001312614        7.40286399559248       -0.05957783684613
C           -4.79308130218354        6.16529120881364       -0.10125029100825
C           -5.49546570652648        4.89317824042878       -0.09038173307295
C           -6.89137001725080        4.83193799819077       -0.13520831537664
C           -7.57637285571366        3.63688723717859       -0.17276025471289
C           -6.87202076247940        2.43421236525837       -0.19562446732694
C           -5.50287835094523        2.44560945013180       -0.14967577210367
C           -4.77683725665788        3.65338148839189       -0.06884572438000
C           -3.36886332813565        3.72074600193967       -0.01638578595519
C           -3.21012171832039        0.80461109052453        1.20866709512279
C           -3.31415122870552       -0.56535029553279        1.31436804539340
C            0.67538625635373       -3.89987149372714        0.99425514099359
C            1.93362134713402       -3.51732321884908        1.41741496547273
H            3.07274293237197       -2.08379883071498        2.53287517171868
H            1.09232570229121       -0.75776105899126        3.17455811546688
H           -1.13867438722013       -1.42347127917301        2.42330605819799
H           -2.71595164092867       -7.44986140423039        0.87371117910537
H           -4.18744912354300       -9.43228823334607        0.55836674004542
H           -6.49015731612147       -9.10364211134631       -0.27469039209627
H           -7.31727412565087       -6.89347443691491       -0.79695279336712
H           -7.89276171283032       -5.10489275344992       -1.32963955596814
H           -8.63565831122784       -2.87632606566791       -1.91779160989440
H           -7.14311700933898       -0.93030768428073       -1.58777700742383
H           -4.91640458912699       -1.25587778023746       -0.62265685898655
H           -1.56379855319365       -1.46466127301922       -1.44598668140147
H           -1.40052069373000        0.99202994375649       -1.65453617790020
H           -0.26109201760535        1.02144216024503        0.97876395929985
H            1.97935649044626        0.21084803436172        0.89555466830160
H            5.16539008021546        3.35632178314090       -0.29921710634242
H            7.41215951107177        2.46759227443335       -0.44081345045470
H            8.09163154235471        1.26453272331188        1.90192160071085
H            9.98350828046150        2.51787386027081        2.85143498618482
H           12.15349454564273        2.57266049834499        1.67334502159919
H           12.41497196033891        1.37176517848834       -0.46950707611176
H           10.52059935018583        0.13323480168399       -1.43206928727816
H            9.84732555064569       -1.94072836988838        0.39324760948035
H           10.27902595801985       -4.08307691188057       -0.73412115920532
H            9.01456424832902       -4.69483936598922       -2.76610447602298
H            7.32064151521152       -3.13980700128625       -3.66903092919786
H            6.90035120876303       -0.98651012024570       -2.55670565349426
H            5.87210913121756       -1.51777871040531       -0.10717344074170
H            3.61736182183205       -0.64380944103687        0.01697241510743
H            3.27764057373852        3.91810129216899       -0.86812895138614
H            0.98651593104955        4.72223260895460       -0.80112191412458
H           -1.61235575846432        7.37074315476405       -0.31222144668139
H           -2.83615573836906        9.54105041149635       -0.27290318673740
H           -5.30043469318677        9.52669781568184       -0.08316695025222
H           -6.52541738964327        7.44593405333034        0.02608192293554
H           -7.46593526699938        5.74399547930389       -0.15326063919887
H           -8.65582054563536        3.63328277375433       -0.20263244167780
H           -7.40378149942876        1.49583265657209       -0.25165886681540
H           -4.96616797276574        1.51280693494761       -0.19869773610594
H           -3.65370102715215        1.44506141546207        1.95655898051283
H           -3.85075621459041       -1.01066467452295        2.13967730704186
H            0.53700157600956       -4.78929621552863        0.39871445671451
H            2.79478202468503       -4.10870093490436        1.14286656563352
