  50
        -71.61769332
 C         -7.5273848254       -2.1314912120       -0.6395524276
 C         -6.5964561418       -1.6965321211        0.3597716451
 C         -5.6567137760       -0.6827228729        0.1975583258
 C         -4.7791516204       -0.3068610680        1.2491006014
 C         -3.8678446433        0.7034369924        1.0825569896
 C         -3.7685644094        1.3858230967       -0.1314619071
 C         -2.7799213451        2.5091220207       -0.3050069543
 O         -1.6512858136        2.4339304078        0.5364829233
 C         -0.7460514074        1.4328227845        0.3299885886
 C         -0.8674343625        0.4203391525       -0.6104538698
 C          0.1282907501       -0.5368237769       -0.7343773128
 C          1.2614895884       -0.5115742051        0.0611529354
 C          2.3678704898       -1.5515084638       -0.0150353729
 C          2.2974103927       -2.4119191489       -1.2850296176
 C          2.2035902522       -2.4730535458        1.2020457076
 C          3.7076205859       -0.8327012723       -0.0394703938
 C          4.7976078441       -1.2171255895        0.7299906458
 C          6.0058298686       -0.5512025889        0.6442575203
 C          6.1524196691        0.5221504981       -0.2244694939
 O          7.3573791819        1.1564835727       -0.2798804304
 C          5.0718073394        0.9133376267       -1.0049083661
 C          3.8699696560        0.2400464346       -0.9098999587
 C          1.3663218918        0.5046488966        1.0097442323
 C          0.3858385627        1.4609667324        1.1451759281
 C         -4.6189400069        1.0271220974       -1.1817682820
 C         -5.5408950581        0.0257864673       -1.0295885498
 H         -7.3011843469       -2.9570388835       -1.2909162963
 H         -8.5121866754       -1.7025618899       -0.7075182401
 H         -6.6269682214       -2.1927857262        1.3294023202
 H         -4.8421516773       -0.8297904253        2.1926673546
 H         -3.2081886956        0.9798056102        1.8929831490
 H         -3.2565395149        3.4585160797       -0.0277746498
 H         -2.4706924751        2.5821419601       -1.3582637255
 H         -1.7352320099        0.3539908144       -1.2480188552
 H         -0.0044478837       -1.3078428841       -1.4767295023
 H          2.2864905891       -1.7893237787       -2.1761312546
 H          1.4124267753       -3.0438225354       -1.2792744381
 H          3.1740068336       -3.0553668623       -1.3316877849
 H          2.3742778754       -1.9289637075        2.1274309957
 H          1.1879033287       -2.8639057792        1.2205405708
 H          2.8901608880       -3.3148293159        1.1499424377
 H          4.7196466163       -2.0462168985        1.4145648038
 H          6.8491226319       -0.8504983050        1.2463644843
 H          7.3132822077        1.8791956607       -0.9171288582
 H          5.1735366207        1.7489371088       -1.6856262094
 H          3.0366977751        0.5624965984       -1.5171608779
 H          2.2397358097        0.5504660005        1.6438759909
 H          0.4733720248        2.2493331015        1.8763901737
 H         -4.5469392961        1.5555360459       -2.1226041717
 H         -6.1998968343       -0.2496836103       -1.8406799564
