80
 energy: -118.214665865780 gnorm: 0.000061132464 xtb: 6.7.1 (edcfbbe)
C            0.59536834813620       -0.79611056940155       -0.02136275112754
C            1.47258876254665        0.19934670356028        0.26654753036029
C            2.90678012502101        0.11040944604254        0.22984501116720
C            3.60772288109449       -1.05871382561521       -0.10467109222047
C            4.98354183378134       -1.08502494108260       -0.12812810921555
C            5.71946450293592        0.05958269805820        0.17915025727749
N            7.11992278806557        0.03006920513023        0.14930028709474
C            7.96071029906278        0.46001171798373        1.15693741536625
C            7.65032885941261        0.96740575582239        2.41122557769695
C            8.69656875423876        1.30155319326489        3.24998989480085
C           10.02391290132748        1.12846801373549        2.86221437770076
C           10.33897870934645        0.60053000421801        1.62562722293255
C            9.30456525125541        0.25802120690386        0.76422675563491
C            9.26281086986646       -0.31721595102390       -0.55151619466526
C           10.24188174920334       -0.71332048863556       -1.45372630414891
C            9.84942583139728       -1.21696763072093       -2.67826305665277
C            8.50023874261337       -1.31332724074021       -3.01395251840124
C            7.50806565100115       -0.92646116229470       -2.13326345094208
C            7.89539946201567       -0.44311261864418       -0.89089240598667
C            5.04185673979868        1.23117124903248        0.51545884483385
C            3.66591587800217        1.25040745881147        0.54137313020737
C           -0.82748892940051       -0.71294889106799        0.00411469409648
C           -1.54882301753599        0.44946286564627        0.35779278069691
C           -2.91157869423123        0.47578605692364        0.34602449302491
C           -3.68253140107898       -0.66891874759351       -0.00118122647899
C           -5.08814458457225       -0.61722561791852       -0.04974404220342
C           -5.77980335218111        0.66871410329128       -0.14827370673414
C           -5.34015374569174        1.62653633942177       -1.11601747620011
C           -4.64020854501134        1.21891741543886       -2.27074883028539
C           -4.18635195610021        2.13840150834183       -3.18872780287451
C           -4.39974606517360        3.49679092827416       -2.99093031992430
C           -5.07234977036640        3.92260263542338       -1.85247299680330
C           -5.53771741979595        3.01101981811560       -0.93151684438022
C           -6.89855400858021        0.90616329461727        0.71572533890844
C           -7.97740273179275        1.72512339346874        0.32774566958843
C           -9.06283634486860        1.90695086198586        1.15585170195399
C           -9.11407330203689        1.28928583997045        2.39851672383035
C           -8.06473920092607        0.47117255911168        2.79736635188575
C           -6.97977358884926        0.27554564078614        1.97314581700054
C           -5.91389113514656       -1.80614184743138       -0.01849472051995
C           -5.56778147906184       -2.92481344951945        0.75551210998858
C           -6.38961057415256       -4.03147383325378        0.80565777679473
C           -7.57481756474998       -4.06069312961665        0.08545149675873
C           -7.93782707046786       -2.95962239817485       -0.67718899739274
C           -7.12649906112311       -1.84619011328079       -0.72381400383760
C           -2.95240657388596       -1.83848736329116       -0.35087569112817
C           -1.58917045329722       -1.84909417927272       -0.35477207391394
H            0.98407127855850       -1.76490855392206       -0.30767554738341
H            1.08862245268149        1.16995403639940        0.55056673404498
H            3.06758879984995       -1.96202776150799       -0.34098601635036
H            5.50517196092593       -1.99982209347927       -0.36903552558455
H            6.62544419189672        1.08825987769540        2.72807864212352
H            8.48065194115214        1.70211764536316        4.22992028565747
H           10.81417134229153        1.40417184253556        3.54516241834062
H           11.36746699703352        0.45127537585797        1.33223040777870
H           11.28783875944828       -0.62294126264387       -1.20087096239414
H           10.59547509089862       -1.53245624000015       -3.39300606437167
H            8.22369990309110       -1.69590232628272       -3.98579526718622
H            6.46639179383614       -0.98864693659408       -2.40976259931745
H            5.60477338363945        2.12585425353381        0.73763953937812
H            3.15448297961444        2.16773244878816        0.79716821614135
H           -1.01206112511615        1.33922233152057        0.65003932338972
H           -3.42985677980287        1.37627378144804        0.64101676631523
H           -4.48554616472116        0.16414327186246       -2.44476276510233
H           -3.66280373667488        1.79931663235333       -4.07143111062584
H           -4.03920255563644        4.21590046191721       -3.71136623653886
H           -5.22441172878777        4.97923480572256       -1.68191353055973
H           -6.01782365171043        3.35840486429052       -0.02837250833048
H           -7.97056381067811        2.17592536267455       -0.65399969971391
H           -9.88470924204106        2.52927784360926        0.83064690737354
H           -9.96597627545746        1.43743663106407        3.04546867383038
H           -8.09812759878048       -0.01377562779562        3.76276819609520
H           -6.16015505372521       -0.34703757845345        2.30071960739264
H           -4.66755748885944       -2.89734264273589        1.35241964827578
H           -6.10977657645577       -4.87768684683264        1.41721029579581
H           -8.21385011502517       -4.93053012240772        0.12459396096303
H           -8.86117392973211       -2.97346430546318       -1.23868453230759
H           -7.41038289344753       -0.99758104441102       -1.32937558330528
H           -3.49479642632514       -2.71434360914171       -0.67524940433900
H           -1.06624006343651       -2.74799934029586       -0.65315477044874
