80
 energy: -118.214615838599 gnorm: 0.000055235668 xtb: 6.7.1 (edcfbbe)
C            0.60130719305005       -0.81737073666277       -0.14593687541713
C            1.45954686432437        0.10285517993112        0.36349257537389
C            2.89539141002791        0.04486751100271        0.33235407466346
C            3.62302571765698       -1.00606592343662       -0.24721314004562
C            4.99947320353442       -1.00160583088308       -0.25717532692706
C            5.70848953515911        0.05757067605090        0.30975414556001
N            7.10928598641391        0.06567364148966        0.28949872760278
C            7.93321176466664        0.28749466813917        1.37538205672163
C            7.60369906105093        0.48966759319671        2.70866891648844
C            8.63650196782383        0.66317444715820        3.61033043857738
C            9.96954521189060        0.62905257224327        3.20528922706688
C           10.30449250535598        0.40230891977123        1.88484450408951
C            9.28379006677039        0.22503168513429        0.95958435082976
C            9.26381199553314       -0.04348298928540       -0.45156722690680
C           10.25764078267962       -0.19588380749899       -1.40995625997132
C            9.88506448194514       -0.42849952228345       -2.71923700382619
C            8.54064217866049       -0.49257095649131       -3.08065144828958
C            7.53403833813115       -0.34434660465472       -2.14545001069424
C            7.90214514412745       -0.13640136458229       -0.82318833385523
C            5.00396146432579        1.10974829729143        0.89415987443286
C            3.62792662673437        1.09770509896042        0.90497172189291
C           -0.82296995424485       -0.75100840028759       -0.13149188948280
C           -1.56101068507550        0.30487710880979        0.44883277815541
C           -2.92329996445773        0.32909581635985        0.41124086407074
C           -3.67705373565418       -0.71585823957141       -0.19197531328288
C           -5.08238229182163       -0.65603968499839       -0.26071034198728
C           -5.77214524826247        0.62632975796030       -0.11298220526356
C           -5.30503177460258        1.75722474763252       -0.85636010570580
C           -4.58787650272100        1.58570568610454       -2.05842229997908
C           -4.11023727745872        2.66774630281121       -2.76224248010640
C           -4.31478732995952        3.95939490405515       -2.29375789393135
C           -5.00294507332220        4.15161365589318       -1.10252107007169
C           -5.49311774480249        3.07668736024099       -0.39514484800549
C           -6.91220269890162        0.69298032117118        0.75199090832132
C           -7.97233221810268        1.59172248674866        0.51827634379413
C           -9.07942982347531        1.61037397523226        1.33720107236561
C           -9.17277847013033        0.74415327842458        2.41870245720716
C           -8.14299767529651       -0.15576962620659        2.66242260819021
C           -7.03618512293059       -0.18822244505566        1.84492240472301
C           -5.90325733422903       -1.82640212233866       -0.48370149179070
C           -5.55762191776026       -3.08045942431292        0.04489128836099
C           -6.37817231829084       -4.17427481265843       -0.13541701079469
C           -7.56299184162621       -4.05538389594245       -0.84723069072783
C           -7.92484686689185       -2.82173100819514       -1.36992782069083
C           -7.11375355820571       -1.72241434934139       -1.18693983994588
C           -2.93092259222015       -1.78097086591296       -0.76726557641263
C           -1.56749872397137       -1.78609321149333       -0.74260327371409
H            1.00701715017663       -1.69966891084089       -0.62408634196197
H            1.05627346217048        0.98500581543751        0.84238974405493
H            3.10323418607086       -1.84143140161437       -0.68950349593110
H            5.54228131717811       -1.82836223531606       -0.69159085896577
H            6.57479932671188        0.50041330322235        3.03548711335679
H            8.40528612329188        0.82558436592619        4.65315756315614
H           10.74868424705344        0.77238758048410        3.93970210073823
H           11.33793766272611        0.35926635032783        1.57445029269214
H           11.29936394510065       -0.12906069858751       -1.13329934496235
H           10.64277195701017       -0.55245423435516       -3.47915570694885
H            8.27927225812148       -0.65843851371498       -4.11578161800527
H            6.49563604158623       -0.37757683896026       -2.43894852121829
H            5.54647302973257        1.94083839202189        1.32030009393681
H            3.09511518709478        1.92346327299346        1.35515086172117
H           -1.03830381344583        1.11235763687069        0.93860439142341
H           -3.45545077721282        1.14252906436216        0.88217085384132
H           -4.43893013862202        0.58694464933414       -2.44186947791542
H           -3.57425541273073        2.50984189801101       -3.68746320791749
H           -3.93541938886339        4.80603175648553       -2.84640799824264
H           -5.14770303260294        5.15278581352748       -0.72131945930600
H           -5.98667278316400        3.23782308154997        0.55219451270984
H           -7.93348227937583        2.23939597396115       -0.34542537000445
H           -9.88588955822296        2.29972928678734        1.12976556617775
H          -10.04215726198831        0.76435245180805        3.05903346198827
H           -8.20896165661062       -0.83454866729948        3.50099008020016
H           -6.23268387670282       -0.87885688740406        2.05457069987363
H           -4.65966991014731       -3.17523494837940        0.63820971549527
H           -6.09891132685566       -5.12768977381718        0.29047292847048
H           -8.20203352198748       -4.91471952999927       -0.98738359057507
H           -8.84744366730535       -2.72050489361048       -1.92360185673210
H           -7.39673150627717       -0.76847010500445       -1.60790261112624
H           -3.45966093252608       -2.56782186822323       -1.28504384793661
H           -1.03120492541277       -2.59782205489836       -1.21591455529824
