  80
       -118.23022592
 C          0.6026774185       -0.7792892170       -0.1627318357
 C          1.4842218395        0.0663428901        0.3934046941
 C          2.9273756507       -0.0052881923        0.2957660538
 C          3.6101243001       -1.0439590340       -0.3453928310
 C          4.9862987261       -1.0579275613       -0.4136913049
 C          5.7322259321       -0.0254702737        0.1520717639
 N          7.1291693213       -0.0337952703        0.0731023313
 C          8.0000227047        0.1674386202        1.1258661260
 C          7.7300639849        0.3515177063        2.4745599937
 C          8.8023099191        0.5042623414        3.3325086878
 C         10.1159269521        0.4664294257        2.8699685989
 C         10.3916560935        0.2569269103        1.5336656314
 C          9.3304437649        0.1011714616        0.6517632406
 C          9.2484362367       -0.1463246734       -0.7603783403
 C         10.2003590703       -0.2893332587       -1.7611633666
 C          9.7719045634       -0.4987445887       -3.0566295600
 C          8.4135740045       -0.5503152834       -3.3617902744
 C          7.4478731904       -0.4107689024       -2.3834202925
 C          7.8722575410       -0.2253976421       -1.0752753004
 C          5.0678768139        1.0155077529        0.7966633016
 C          3.6919161432        1.0172432634        0.8687186111
 C         -0.8402822762       -0.6920219106       -0.0796670639
 C         -1.5153861165        0.2401578702        0.7156048141
 C         -2.8909158476        0.2937781806        0.7365062630
 C         -3.6556640988       -0.5820082288       -0.0356275694
 C         -5.1234970327       -0.5391024919       -0.0140150612
 C         -5.8182273666        0.6200875073       -0.0691538699
 C         -5.1782920548        1.9147900719       -0.3529015240
 C         -4.2563608479        2.0507901977       -1.3892842220
 C         -3.6805805469        3.2775102502       -1.6585767996
 C         -4.0162425711        4.3879579944       -0.9010931389
 C         -4.9417295913        4.2664959358        0.1221114447
 C         -5.5240682429        3.0420474498        0.3902821609
 C         -7.2736008985        0.6761110984        0.1448612117
 C         -8.0757774362        1.4405564123       -0.7003007901
 C         -9.4414161725        1.5104961722       -0.4993091567
 C        -10.0251307091        0.8316380010        0.5574017937
 C         -9.2334619356        0.0855125158        1.4152690067
 C         -7.8691166275        0.0069729173        1.2124367364
 C         -5.7903253583       -1.8501099576        0.0653755619
 C         -5.3297692216       -2.8159077152        0.9580075636
 C         -5.9422121923       -4.0527867105        1.0324046633
 C         -7.0134545566       -4.3498053290        0.2064258564
 C         -7.4655653323       -3.4034671436       -0.6987845751
 C         -6.8601486015       -2.1636168935       -0.7706162590
 C         -2.9902594614       -1.5373606149       -0.8041359913
 C         -1.6138792327       -1.5857716393       -0.8284565970
 H          0.9642202488       -1.6097764937       -0.7547367271
 H          1.1195353369        0.9083265372        0.9667003922
 H          3.0593378710       -1.8599023813       -0.7866691499
 H          5.4980040058       -1.8793416425       -0.8929724851
 H          6.7166535690        0.3630346356        2.8466027459
 H          8.6175474587        0.6524798565        4.3862491249
 H         10.9263387239        0.5930182664        3.5721690999
 H         11.4095182606        0.2094867825        1.1771789349
 H         11.2524939388       -0.2316304384       -1.5264223342
 H         10.4955645675       -0.6147705656       -3.8495585542
 H          8.1078654728       -0.6985379519       -4.3870318632
 H          6.3980650678       -0.4323928189       -2.6341677904
 H          5.6380460802        1.8277990904        1.2222450780
 H          3.1899483137        1.8336292796        1.3686166387
 H         -0.9573844462        0.9274201208        1.3325345148
 H         -3.3892200085        1.0150957255        1.3671613889
 H         -4.0015805293        1.1901548419       -1.9900263026
 H         -2.9685970420        3.3691741664       -2.4658988075
 H         -3.5628829285        5.3452988475       -1.1115592645
 H         -5.2119431340        5.1299745215        0.7124623013
 H         -6.2452733226        2.9478786914        1.1899610594
 H         -7.6213028632        1.9694452238       -1.5263140716
 H        -10.0529336724        2.0982920394       -1.1684370099
 H        -11.0919125229        0.8883270794        0.7153526790
 H         -9.6818326854       -0.4357287355        2.2484986720
 H         -7.2534261160       -0.5661651429        1.8897833094
 H         -4.4947145631       -2.5842694643        1.6043224625
 H         -5.5815361024       -4.7887053831        1.7363151776
 H         -7.4907833205       -5.3168268279        0.2638479164
 H         -8.2931894663       -3.6340619588       -1.3536536679
 H         -7.2076299358       -1.4324567208       -1.4854178661
 H         -3.5658320671       -2.2338609806       -1.3974604560
 H         -1.1187960169       -2.3254587304       -1.4424429778
