  78
  -117.972659720000       0.506579990564973      !
 C          0.8371367727        2.5210046516        2.0002247207
 C          1.7017653306        3.3405896906        1.0309570167
 C          2.9938790474        3.7520125712        1.7584795872
 C          0.9948675814        4.6454108843        0.6032262422
 C         -0.0117221342        4.5568701794       -0.5604082295
 C         -1.3366461312        3.9535886920       -0.1327734675
 C         -2.3222633309        4.7640769593        0.4201604899
 C         -3.5346664193        4.2310320646        0.8274745687
 C         -3.7805381352        2.8772679529        0.7001962879
 C         -2.7975338542        2.0532218180        0.1604951945
 C         -2.9941472580        0.6068446063        0.0615863212
 N         -1.9066612742       -0.1410755818       -0.0985782807
 C         -2.1046567450       -1.4549046837       -0.1486355356
 C         -0.9307782983       -2.3187726798       -0.2645630678
 C         -1.0868571616       -3.6920926643       -0.4441103064
 C          0.0238656582       -4.5077064837       -0.5377616993
 C          1.2955310078       -3.9625243893       -0.4471995160
 C          1.4561981189       -2.5978144438       -0.2661455699
 C          0.3502368401       -1.7751058348       -0.1790129997
 N         -3.3057671312       -2.0246661099       -0.0892083735
 C         -4.3379271900       -1.1999703645        0.0569797444
 C         -5.6791967140       -1.7810169787        0.1205794424
 C         -6.7975700336       -0.9525689335        0.1926423075
 C         -8.0625059775       -1.5036449005        0.2544960765
 C         -8.2226636712       -2.8808025697        0.2459127106
 C         -7.1133118567       -3.7087168925        0.1728626102
 C         -5.8452969121       -3.1643505667        0.1098697555
 N         -4.2273729935        0.1232747733        0.1564583507
 C         -1.5898184255        2.5981813870       -0.2645051403
 C          0.5729181642        3.8035183898       -1.7100452747
 C          1.4976077315        2.8489413956       -1.4791402258
 N          2.0613527624        1.9845081344       -2.3926704327
 C          2.8709043490        1.0810351016       -1.7479912598
 C          3.5908958527        0.0514138420       -2.2629419622
 C          4.3455111476       -0.7316768367       -1.3531947285
 C          4.3181242922       -0.4124156061        0.0718788420
 C          3.6025839684        0.6220907943        0.5722609772
 C          2.8506946365        1.4236401205       -0.3360169139
 C          2.0371695586        2.5223768134       -0.1795326187
 C          5.1582847822       -1.4008129979        0.7319971919
 C          5.4914650532       -1.5943167785        2.0545399919
 C          6.3328210557       -2.6537391357        2.3813778486
 C          6.8258976863       -3.4981463578        1.3992817984
 C          6.4965693834       -3.3140572664        0.0629782067
 C          5.6604497895       -2.2630636090       -0.2763443885
 C          5.1455585185       -1.8297366455       -1.5474294255
 H          0.6308260259        3.1036804801        2.8959808267
 H          1.3564928235        1.6115022431        2.2918846329
 H         -0.1075972677        2.2407896522        1.5453509018
 H          3.4765772670        2.8969849950        2.2202096082
 H          2.7629758401        4.4743994183        2.5389142719
 H          3.6973418849        4.2051247970        1.0630008267
 H          0.4927721625        5.0732244594        1.4733355860
 H          1.7704729335        5.3485265817        0.2880895657
 H         -0.2211682604        5.5862365508       -0.8782473398
 H         -2.1404862673        5.8242582564        0.5303753465
 H         -4.2893330116        4.8789814018        1.2488194866
 H         -4.7143940110        2.4427675866        1.0199782922
 H         -2.0844993299       -4.0974503952       -0.5094437890
 H         -0.0990413399       -5.5716390867       -0.6795415441
 H          2.1649725327       -4.5998659562       -0.5156346509
 H          2.4468750317       -2.1783477325       -0.1915243407
 H          0.4608107470       -0.7112525820       -0.0355825875
 H         -6.6521020840        0.1161382922        0.1944235121
 H         -8.9288103093       -0.8610372707        0.3085484777
 H         -9.2132470568       -3.3090559348        0.2955658113
 H         -7.2405675665       -4.7814667877        0.1660012755
 H         -4.9700154701       -3.7923293187        0.0546830579
 H         -0.8571652273        1.9375741754       -0.7013849698
 H          0.1696613004        3.9753610147       -2.6959330213
 H          1.8325371075        1.9575240676       -3.3700682470
 H          3.5923660397       -0.1789710967       -3.3176182812
 H          3.5865458730        0.8291354938        1.6311420530
 H          5.1116200424       -0.9410892214        2.8273710728
 H          6.6050209435       -2.8195195774        3.4136715594
 H          7.4778082934       -4.3135513091        1.6791786658
 H          6.8855139259       -3.9779395316       -0.6958856504
 H          5.3596954345       -2.3044610749       -2.4879610650
  78
  -117.972589130000       0.470118253115857      !
 C          0.8045498769        2.5277127632        1.9893482442
 C          1.6908227023        3.3415963003        1.0351611923
 C          2.9631042917        3.7640882411        1.7901000996
 C          0.9929707423        4.6405661521        0.5767418156
 C         -0.0011113349        4.5304981851       -0.5957307499
 C         -1.3282516735        3.9345343088       -0.1651686794
 C         -2.2982831300        4.7471869412        0.4117251010
 C         -3.5083012014        4.2195157661        0.8327125399
 C         -3.7669988814        2.8691800390        0.6954697143
 C         -2.8012003463        2.0433538263        0.1278845570
 C         -3.0119189405        0.6001888016        0.0149445971
 N         -1.9425940024       -0.1502230963       -0.2310372734
 C         -2.1524792288       -1.4614029855       -0.2990471385
 C         -0.9931700651       -2.3266561057       -0.5120278676
 C         -1.1660679625       -3.6958897111       -0.7062381735
 C         -0.0669307233       -4.5122266887       -0.8889592641
 C          1.2097936517       -3.9718245131       -0.8747442368
 C          1.3876939254       -2.6104533328       -0.6818061989
 C          0.2927916606       -1.7877587523       -0.5034553197
 N         -3.3502359081       -2.0265606953       -0.1718307073
 C         -4.3639536244       -1.2002902001        0.0678431439
 C         -5.6999437968       -1.7764880692        0.2222113865
 C         -5.8827626533       -3.1556277007        0.1442023349
 C         -7.1451989326       -3.6951464735        0.2959752833
 C         -8.2324669295       -2.8668112219        0.5271618747
 C         -8.0558113213       -1.4939807191        0.6046395781
 C         -6.7963579519       -0.9478271852        0.4523782040
 N         -4.2386829858        0.1199421844        0.1848293451
 C         -1.5960439010        2.5835542137       -0.3107310414
 C          0.5986743032        3.7595920241       -1.7257767147
 C          1.5290121235        2.8168522262       -1.4702481605
 N          2.1125289168        1.9453595720       -2.3646378512
 C          2.9195841703        1.0564580399       -1.6967687342
 C          3.6575549569        0.0281980355       -2.1886831469
 C          4.4053401933       -0.7373385371       -1.2576605274
 C          4.3505395325       -0.4036000833        0.1631581330
 C          3.6185632885        0.6303398971        0.6397962321
 C          2.8757882099        1.4161318988       -0.2894190163
 C          2.0533623272        2.5114631375       -0.1591866980
 C          5.1928447171       -1.3729999075        0.8472034385
 C          5.5111201764       -1.5443964256        2.1764463517
 C          6.3658769980       -2.5849594136        2.5280378429
 C          6.8870529644       -3.4325659270        1.5634332882
 C          6.5733050224       -3.2705245950        0.2204947355
 C          5.7241197169       -2.2383679923       -0.1432078304
 C          5.2235467964       -1.8263139317       -1.4271155542
 H          0.5543694673        3.1249301472        2.8640301482
 H          1.3285823124        1.6339773685        2.3190820528
 H         -0.1171480789        2.2207444560        1.5054502801
 H          3.4406927676        2.9147354450        2.2667853895
 H          2.7098272037        4.4879795331        2.5619272752
 H          3.6798510743        4.2191288073        1.1098981071
 H          0.4824684854        5.0853452844        1.4333747327
 H          1.7743358046        5.3355838589        0.2575798237
 H         -0.2087873380        5.5538612119       -0.9338702662
 H         -2.1053785157        5.8043037548        0.5317735636
 H         -4.2499078336        4.8685858012        1.2748481218
 H         -4.6980155345        2.4382945244        1.0277514691
 H         -2.1671059455       -4.0983480622       -0.7100857718
 H         -0.2027879027       -5.5731985426       -1.0404614601
 H          2.0698027484       -4.6107482419       -1.0123826432
 H          2.3825917366       -2.1936080505       -0.6690081322
 H          0.4164481843       -0.7272215760       -0.3476353011
 H         -5.0243956405       -3.7840899841       -0.0337898688
 H         -7.2855335484       -4.7644949051        0.2361058546
 H         -9.2184825105       -3.2916019190        0.6473240534
 H         -8.9046910563       -0.8505002301        0.7844442846
 H         -6.6389880887        0.1179184191        0.5071403788
 H         -0.8752039854        1.9221299183       -0.7655917222
 H          0.2056386470        3.9130055772       -2.7188665140
 H          1.8956938123        1.9002454869       -3.3441934953
 H          3.6779359191       -0.2136677268       -3.2406583546
 H          3.5833590896        0.8486520326        1.6959043402
 H          5.1092592577       -0.8886275537        2.9357301656
 H          6.6268649310       -2.7331700116        3.5658218638
 H          7.5494089194       -4.2326894002        1.8622665133
 H          6.9852579024       -3.9362383957       -0.5244800337
 H          5.4595652605       -2.3076109795       -2.3591769244
  78
  -117.969169710000       1.261102789040024E-002 !
 C          3.4074446766       -0.1935196613       -2.3154991156
 C          2.8424802004       -0.0985010927       -0.8933467546
 C          3.0357844454       -1.4447160925       -0.1786536406
 C          1.3458809258        0.2502526133       -1.0068791727
 C          0.6512308327        0.5284738592        0.3357080481
 C         -0.7619555280        0.9869584272        0.0741933018
 C         -1.0108350979        2.2959251351       -0.3269068573
 C         -2.3009682798        2.7196250644       -0.5960459221
 C         -3.3609206872        1.8418989259       -0.4744118666
 C         -3.1267893119        0.5277102892       -0.0771432396
 C         -4.2396603207       -0.4130130552        0.0532484722
 N         -3.9714300807       -1.6424705295        0.4839964783
 C         -5.0118987843       -2.4647516427        0.5846096362
 C         -4.7689013477       -3.8249451802        1.0668437977
 C         -5.8188315115       -4.7371223923        1.1494507370
 C         -5.5868496443       -6.0191283196        1.6086158403
 C         -4.3098712326       -6.4010080743        1.9893820946
 C         -3.2617900173       -5.4970600483        1.9095127912
 C         -3.4869169954       -4.2141543106        1.4500993564
 N         -6.2599653744       -2.1258030251        0.2756701332
 C         -6.4382834992       -0.8766375684       -0.1447359874
 C         -7.7957750622       -0.4555813266       -0.4922827101
 C         -8.8498483829       -1.3648033359       -0.4275408183
 C        -10.1302493624       -0.9635675561       -0.7549599508
 C        -10.3702719629        0.3443226199       -1.1471750419
 C         -9.3250920292        1.2526405272       -1.2132710446
 C         -8.0419889898        0.8573879290       -0.8888138895
 N         -5.4578223093        0.0133264491       -0.2668548002
 C         -1.8264562668        0.1100963516        0.1954581708
 C          1.4227985590        1.5429471150        1.1202137074
 C          2.7380988427        1.7208626027        0.8816306384
 N          3.5949141057        2.6026791860        1.5044659048
 C          4.8706987087        2.4420593218        1.0203650840
 C          6.0091174704        3.0944265880        1.3697865066
 C          7.2048773134        2.7139580352        0.7092975334
 C          7.1690992765        1.6558147057       -0.2951414896
 C          6.0276950093        1.0142151025       -0.6378162216
 C          4.8168717612        1.3947017465        0.0131590667
 C          3.5127336094        0.9695569409       -0.0806281427
 C          8.5347104170        1.4941439972       -0.7724772723
 C          9.0925667446        0.6531675040       -1.7099303446
 C         10.4608078900        0.7384223142       -1.9519964575
 C         11.2477353494        1.6494452362       -1.2659437975
 C         10.6970334880        2.5033303108       -0.3192128774
 C          9.3368563051        2.4287214683       -0.0689447394
 C          8.4944745740        3.1647647722        0.8352428609
 H          2.7450383836       -0.7948888920       -2.9350800952
 H          4.3854397311       -0.6644100460       -2.3205831049
 H          3.4944275366        0.7947166349       -2.7610734042
 H          4.0926994296       -1.6980342747       -0.1403404410
 H          2.5068000066       -2.2318813462       -0.7116372780
 H          2.6642615296       -1.3992260533        0.8419765847
 H          1.2513744390        1.1441377386       -1.6289147255
 H          0.8235342316       -0.5640817883       -1.5132672837
 H          0.6005972629       -0.4068036298        0.9100239523
 H         -0.1835504326        2.9848146542       -0.4246588227
 H         -2.4781834354        3.7400361186       -0.9032575921
 H         -4.3724138392        2.1534251650       -0.6801373986
 H         -6.8058958611       -4.4222724740        0.8496552204
 H         -6.4019847283       -6.7251392442        1.6713719729
 H         -4.1311729252       -7.4036504339        2.3496993080
 H         -2.2678496683       -5.7966703099        2.2085197569
 H         -2.6846239656       -3.4962122759        1.3833891486
 H         -8.6440017457       -2.3778237834       -0.1197824242
 H        -10.9461907502       -1.6696949490       -0.7051699905
 H        -11.3729359786        0.6560767792       -1.4012554802
 H         -9.5145609880        2.2712917718       -1.5188663786
 H         -7.2162644040        1.5498417440       -0.9351421888
 H         -1.6677263993       -0.9123298172        0.5030940561
 H          0.9036525837        2.1014897467        1.8839312624
 H          3.3315976994        3.2409218154        2.2335503724
 H          6.0188198058        3.8689899301        2.1219898894
 H          6.0295455996        0.2313542945       -1.3790670347
 H          8.4869851032       -0.0603523919       -2.2504472219
 H         10.9146630546        0.0859525857       -2.6838925425
 H         12.3078291242        1.6962276848       -1.4715892349
 H         11.3191435301        3.2105156301        0.2104683620
 H          8.8380735899        3.9398431860        1.4965498100
  78
  -117.969013600000       1.069072842877013E-002 !
 C          3.3247691831       -0.8812012859       -1.8499672810
 C          2.7835698087       -0.3111876121       -0.5339526070
 C          2.9504650995       -1.3565358135        0.5796447516
 C          1.2966666091        0.0290915273       -0.7463534129
 C          0.6263063430        0.7381522594        0.4417645705
 C         -0.7725203473        1.1290785917        0.0332094728
 C         -1.0020374714        2.3014060069       -0.6793468084
 C         -2.2791935438        2.6354610030       -1.0977798273
 C         -3.3427327340        1.7969177684       -0.8259032224
 C         -3.1261642618        0.6150350237       -0.1214894561
 C         -4.2358667178       -0.2975517513        0.1538671881
 N         -3.9967252444       -1.3536823313        0.9260711531
 C         -5.0289706314       -2.1638858657        1.1417311961
 C         -4.8162549506       -3.3322923993        1.9967833178
 C         -5.8492868919       -4.2423233588        2.2111756237
 C         -5.6435358181       -5.3446611988        3.0177698858
 C         -4.4098047105       -5.5480915485        3.6163124050
 C         -3.3789758295       -4.6451423615        3.4069378243
 C         -3.5781136915       -3.5412481906        2.6010544839
 N         -6.2394802407       -1.9796767064        0.6232498031
 C         -6.3887883964       -0.9011649311       -0.1407761764
 C         -7.6990885078       -0.6641470786       -0.7471009236
 C         -8.7547825237       -1.5394970063       -0.5000646016
 C         -9.9876573901       -1.3177579542       -1.0820113314
 C        -10.1780663331       -0.2242521509       -1.9126128099
 C         -9.1313172884        0.6501746009       -2.1605734964
 C         -7.8958137994        0.4340502902       -1.5820267826
 N         -5.4173392513       -0.0285821873       -0.3930981497
 C         -1.8417959599        0.2932677580        0.3085134974
 C          1.4395426737        1.9165920840        0.8756723446
 C          2.7548589528        1.9735666709        0.5825294718
 N          3.6457752828        2.9783593610        0.8937767379
 C          4.9036437114        2.6489134069        0.4493200263
 C          6.0619156547        3.3506497712        0.5489954577
 C          7.2292224567        2.7597794909        0.0012895708
 C          7.1461403561        1.4453496265       -0.6270811766
 C          5.9865852369        0.7540633417       -0.7200769951
 C          4.8039142568        1.3441587317       -0.1846311059
 C          3.4914977374        0.9422087681       -0.1135091752
 C          8.4905763215        1.1164072309       -1.0765538628
 C          9.0025615091        0.0172097384       -1.7299588461
 C         10.3605391578       -0.0040891913       -2.0348261605
 C         11.1819548909        1.0571497352       -1.6895678072
 C         10.6773456973        2.1710785607       -1.0313439597
 C          9.3276237839        2.2050801634       -0.7221152957
 C          8.5271814615        3.2003309215       -0.0602440483
 H          2.6301800064       -1.6201049858       -2.2444066713
 H          4.2814471970       -1.3718497180       -1.7020300166
 H          3.4466928156       -0.0932924192       -2.5892540674
 H          4.0012445276       -1.6114260378        0.6968167942
 H          2.3971587353       -2.2599449178        0.3322395367
 H          2.5903083201       -0.9719812711        1.5303878619
 H          1.2186358718        0.6840004417       -1.6182561380
 H          0.7445840554       -0.8866207686       -0.9676632405
 H          0.5455824832        0.0305987884        1.2786128167
 H         -0.1704820348        2.9536588259       -0.9063884994
 H         -2.4416521654        3.5530025737       -1.6443447897
 H         -4.3429570556        2.0372944591       -1.1489936680
 H         -6.8021094492       -4.0682276545        1.7366443998
 H         -6.4452283257       -6.0496563939        3.1824614384
 H         -4.2515363453       -6.4108636326        4.2468821721
 H         -2.4186442437       -4.8052348170        3.8751195168
 H         -2.7885325097       -2.8270542333        2.4279939111
 H         -8.5879074642       -2.3850049602        0.1485686968
 H        -10.8045789297       -1.9981286386       -0.8903732494
 H        -11.1429558692       -0.0538083968       -2.3676179567
 H         -9.2819209973        1.5011850804       -2.8087205936
 H         -7.0688982453        1.1016921491       -1.7660115511
 H         -1.6967161694       -0.6270635342        0.8536190797
 H          0.9495716024        2.6950229597        1.4404947035
 H          3.4103317377        3.8223672452        1.3841755600
 H          6.1080980468        4.3185016302        1.0254646493
 H          5.9527495233       -0.2182965318       -1.1841190129
 H          8.3688364838       -0.8143449089       -2.0039316401
 H         10.7791376786       -0.8582242717       -2.5472556326
 H         12.2332511548        1.0167255438       -1.9373666290
 H         11.3268012627        2.9934024968       -0.7671530794
 H          8.9031080489        4.1338607208        0.3183849376
