  94
       -153.79796638
 N          0.0026309434       -3.3536435788       -2.0951472334
 C          0.0010390320       -2.4057443452       -1.4290264920
 C         -0.0001284854       -1.2666222441       -0.6391869713
 C         -1.2284373336       -0.6115123934       -0.3071049714
 N         -2.4375511709       -1.2131626760       -0.6710511831
 C         -3.4591621470       -0.5923978065       -1.3577696728
 C         -3.4398094455        0.6010987982       -2.0638667062
 C         -4.6155071490        1.0126827037       -2.6631976310
 C         -5.7733248725        0.2445490969       -2.5864133013
 C         -5.7794158721       -0.9767477281       -1.9337897436
 C         -4.6134705943       -1.4064851485       -1.3214941659
 C         -4.2489482020       -2.5910567059       -0.5903994361
 C         -4.9414288396       -3.7281160296       -0.2077632641
 C         -4.2782335547       -4.6889449896        0.5354511896
 C         -2.9462281634       -4.5190245095        0.9045282690
 C         -2.2377426106       -3.3908180967        0.5396297395
 C         -2.8928240063       -2.4318746648       -0.2203951123
 C         -1.2297407111        0.6172002010        0.3249254806
 N         -2.4408700880        1.2177560312        0.6839043204
 C         -2.8963962931        2.4344483185        0.2272346493
 C         -2.2375346315        3.3953430302       -0.5269348147
 C         -2.9470161250        4.5199521114       -0.9009588657
 C         -4.2836284969        4.6845523444       -0.5465026349
 C         -4.9504854793        3.7217907998        0.1909097455
 C         -4.2571014576        2.5883398746        0.5824350183
 C         -4.6248100907        1.4028201482        1.3103252124
 C         -5.7960930961        0.9683993587        1.9089857295
 C         -5.7925472111       -0.2526078179        2.5621062526
 C         -4.6323848781       -1.0157330246        2.6528710564
 C         -3.4515856769       -0.5995566117        2.0669174679
 C         -3.4676621524        0.5934912408        1.3598383099
 C         -0.0022415765        1.2733781724        0.6590354701
 C         -0.0029315681        2.4114863621        1.4502398271
 N         -0.0031985660        3.3585621154        2.1174357691
 C          1.2260322956        0.6185958947        0.3263197065
 N          2.4374776003        1.2160573035        0.6900939396
 C          3.4583897753        0.5844596752        1.3683037915
 C          3.4309583824       -0.6080255404        2.0758245077
 C          4.6067756830       -1.0329761038        2.6654311360
 C          5.7731430561       -0.2791870726        2.5765454897
 C          5.7880222438        0.9413240014        1.9226315404
 C          4.6214969768        1.3850639175        1.3214000713
 C          4.2635084406        2.5737427121        0.5937583958
 C          4.9652869257        3.7033014017        0.2060367868
 C          4.3060958675        4.6727226075       -0.5295420729
 C          2.9686377875        4.5187210903       -0.8854928592
 C          2.2507596248        3.3980484282       -0.5154307207
 C          2.9022069350        2.4300728355        0.2360488239
 C          1.2268413396       -0.6091796303       -0.3075255219
 N          2.4375553641       -1.2061551236       -0.6739610123
 C          3.4541715361       -0.5811360175       -1.3640167140
 C          3.4271117897        0.6120495099       -2.0704212014
 C          4.5980942740        1.0272156800       -2.6764811387
 C          5.7591199265        0.2634836135       -2.6047188803
 C          5.7732705166       -0.9567502575       -1.9501623934
 C          4.6119171711       -1.3904887826       -1.3320242594
 C          4.2549389843       -2.5764050879       -0.5993454668
 C          4.9530483389       -3.7109484702       -0.2198131502
 C          4.2959252860       -4.6749671901        0.5248388230
 C          2.9644920600       -4.5107277886        0.8981038694
 C          2.2502881820       -3.3851208608        0.5360499281
 C          2.8993458173       -2.4229737415       -0.2248636799
 H         -2.5388939073        1.1865186784       -2.1528860754
 H         -4.6332617431        1.9476637441       -3.2026200069
 H         -6.6747109112        0.6010855333       -3.0607725731
 H         -6.6714954387       -1.5831782611       -1.9045679327
 H         -5.9772053652       -3.8580950548       -0.4811979137
 H         -4.7990166872       -5.5841696752        0.8391806953
 H         -2.4579917082       -5.2844388519        1.4888620970
 H         -1.2078645215       -3.2675064661        0.8315113407
 H         -1.2041946674        3.2762012339       -0.8079518715
 H         -2.4559005555        5.2865261420       -1.4813650542
 H         -4.8051747146        5.5768867564       -0.8573310693
 H         -5.9897403254        3.8473972343        0.4529073307
 H         -6.6902636920        1.5711337352        1.8690760560
 H         -6.6979348112       -0.6127575015        3.0260696755
 H         -4.6525747455       -1.9504675530        3.1926538046
 H         -2.5493775270       -1.1813933747        2.1660122023
 H          2.5235987785       -1.1821563707        2.1727912738
 H          4.6180669088       -1.9671127186        3.2064818254
 H          6.6744620825       -0.6461369030        3.0430332604
 H          6.6872427891        1.5365766722        1.8844026393
 H          6.0051128935        3.8207551621        0.4695663755
 H          4.8343387266        5.5621404594       -0.8374042842
 H          2.4833414433        5.2907577047       -1.4635203947
 H          1.2164606879        3.2877956576       -0.7965591493
 H          2.5235388661        1.1940502113       -2.1550293761
 H          4.6094918226        1.9612850423       -3.2176639978
 H          6.6565542964        0.6224017037       -3.0847407092
 H          6.6679044043       -1.5595670088       -1.9246721956
 H          5.9884612040       -3.8368138853       -0.4964328215
 H          4.8214236121       -5.5681906467        0.8262895860
 H          2.4810224456       -5.2784332212        1.4833807474
 H          1.2207265824       -3.2664989956        0.8309335910
