  94
  -153.228580810500       0.638071276726994      !
 N          0.0026309434       -3.3536435788       -2.0951472334
 C          0.0010390320       -2.4057443452       -1.4290264920
 C         -0.0001284854       -1.2666222441       -0.6391869713
 C         -1.2284373336       -0.6115123934       -0.3071049714
 N         -2.4375511709       -1.2131626760       -0.6710511831
 C         -3.4591621470       -0.5923978065       -1.3577696728
 C         -3.4398094455        0.6010987982       -2.0638667062
 C         -4.6155071490        1.0126827037       -2.6631976310
 C         -5.7733248725        0.2445490969       -2.5864133013
 C         -5.7794158721       -0.9767477281       -1.9337897436
 C         -4.6134705943       -1.4064851485       -1.3214941659
 C         -4.2489482020       -2.5910567059       -0.5903994361
 C         -4.9414288396       -3.7281160296       -0.2077632641
 C         -4.2782335547       -4.6889449896        0.5354511896
 C         -2.9462281634       -4.5190245095        0.9045282690
 C         -2.2377426106       -3.3908180967        0.5396297395
 C         -2.8928240063       -2.4318746648       -0.2203951123
 C         -1.2297407111        0.6172002010        0.3249254806
 N         -2.4408700880        1.2177560312        0.6839043204
 C         -2.8963962931        2.4344483185        0.2272346493
 C         -2.2375346315        3.3953430302       -0.5269348147
 C         -2.9470161250        4.5199521114       -0.9009588657
 C         -4.2836284969        4.6845523444       -0.5465026349
 C         -4.9504854793        3.7217907998        0.1909097455
 C         -4.2571014576        2.5883398746        0.5824350183
 C         -4.6248100907        1.4028201482        1.3103252124
 C         -5.7960930961        0.9683993587        1.9089857295
 C         -5.7925472111       -0.2526078179        2.5621062526
 C         -4.6323848781       -1.0157330246        2.6528710564
 C         -3.4515856769       -0.5995566117        2.0669174679
 C         -3.4676621524        0.5934912408        1.3598383099
 C         -0.0022415765        1.2733781724        0.6590354701
 C         -0.0029315681        2.4114863621        1.4502398271
 N         -0.0031985660        3.3585621154        2.1174357691
 C          1.2260322956        0.6185958947        0.3263197065
 N          2.4374776003        1.2160573035        0.6900939396
 C          3.4583897753        0.5844596752        1.3683037915
 C          3.4309583824       -0.6080255404        2.0758245077
 C          4.6067756830       -1.0329761038        2.6654311360
 C          5.7731430561       -0.2791870726        2.5765454897
 C          5.7880222438        0.9413240014        1.9226315404
 C          4.6214969768        1.3850639175        1.3214000713
 C          4.2635084406        2.5737427121        0.5937583958
 C          4.9652869257        3.7033014017        0.2060367868
 C          4.3060958675        4.6727226075       -0.5295420729
 C          2.9686377875        4.5187210903       -0.8854928592
 C          2.2507596248        3.3980484282       -0.5154307207
 C          2.9022069350        2.4300728355        0.2360488239
 C          1.2268413396       -0.6091796303       -0.3075255219
 N          2.4375553641       -1.2061551236       -0.6739610123
 C          3.4541715361       -0.5811360175       -1.3640167140
 C          3.4271117897        0.6120495099       -2.0704212014
 C          4.5980942740        1.0272156800       -2.6764811387
 C          5.7591199265        0.2634836135       -2.6047188803
 C          5.7732705166       -0.9567502575       -1.9501623934
 C          4.6119171711       -1.3904887826       -1.3320242594
 C          4.2549389843       -2.5764050879       -0.5993454668
 C          4.9530483389       -3.7109484702       -0.2198131502
 C          4.2959252860       -4.6749671901        0.5248388230
 C          2.9644920600       -4.5107277886        0.8981038694
 C          2.2502881820       -3.3851208608        0.5360499281
 C          2.8993458173       -2.4229737415       -0.2248636799
 H         -2.5388939073        1.1865186784       -2.1528860754
 H         -4.6332617431        1.9476637441       -3.2026200069
 H         -6.6747109112        0.6010855333       -3.0607725731
 H         -6.6714954387       -1.5831782611       -1.9045679327
 H         -5.9772053652       -3.8580950548       -0.4811979137
 H         -4.7990166872       -5.5841696752        0.8391806953
 H         -2.4579917082       -5.2844388519        1.4888620970
 H         -1.2078645215       -3.2675064661        0.8315113407
 H         -1.2041946674        3.2762012339       -0.8079518715
 H         -2.4559005555        5.2865261420       -1.4813650542
 H         -4.8051747146        5.5768867564       -0.8573310693
 H         -5.9897403254        3.8473972343        0.4529073307
 H         -6.6902636920        1.5711337352        1.8690760560
 H         -6.6979348112       -0.6127575015        3.0260696755
 H         -4.6525747455       -1.9504675530        3.1926538046
 H         -2.5493775270       -1.1813933747        2.1660122023
 H          2.5235987785       -1.1821563707        2.1727912738
 H          4.6180669088       -1.9671127186        3.2064818254
 H          6.6744620825       -0.6461369030        3.0430332604
 H          6.6872427891        1.5365766722        1.8844026393
 H          6.0051128935        3.8207551621        0.4695663755
 H          4.8343387266        5.5621404594       -0.8374042842
 H          2.4833414433        5.2907577047       -1.4635203947
 H          1.2164606879        3.2877956576       -0.7965591493
 H          2.5235388661        1.1940502113       -2.1550293761
 H          4.6094918226        1.9612850423       -3.2176639978
 H          6.6565542964        0.6224017037       -3.0847407092
 H          6.6679044043       -1.5595670088       -1.9246721956
 H          5.9884612040       -3.8368138853       -0.4964328215
 H          4.8214236121       -5.5681906467        0.8262895860
 H          2.4810224456       -5.2784332212        1.4833807474
 H          1.2207265824       -3.2664989956        0.8309335910
  94
  -153.228044989800       0.361928723273006      !
 N          0.0021469200       -3.0913373650       -2.4758983429
 C          0.0022782565       -2.1914677833       -1.7455248492
 C          0.0018346265       -1.1234621084       -0.8629346002
 C         -1.2273961411       -0.5471720231       -0.4090269319
 N         -2.4378989908       -1.0615869279       -0.8957745187
 C         -2.8637875337       -0.9931378131       -2.2041640639
 C         -2.1690242418       -0.5864611302       -3.3345049755
 C         -2.8501209203       -0.5725965868       -4.5367762173
 C         -4.1902390051       -0.9417214158       -4.6151325405
 C         -4.8908754242       -1.3340807040       -3.4875672263
 C         -4.2276387973       -1.3616969568       -2.2717197399
 C         -4.6304830915       -1.6800590304       -0.9274792414
 C         -5.8209546290       -2.0935061596       -0.3527320424
 C         -5.8513425935       -2.3283643982        1.0118694786
 C         -4.7071569429       -2.1884790491        1.7922606325
 C         -3.5075660229       -1.7809501977        1.2401308457
 C         -3.4877161432       -1.4910116114       -0.1165468052
 C         -1.2301395196        0.4923096865        0.4955966396
 N         -2.4456008861        1.0344823676        0.9392394403
 C         -3.4477935628        1.4948006932        0.1158407547
 C         -3.4003412914        1.7853015192       -1.2399166779
 C         -4.5623042700        2.2286886771       -1.8427434294
 C         -5.7345087652        2.4024453584       -1.1125423675
 C         -5.7705206504        2.1652902758        0.2516033786
 C         -4.6188750347        1.7160116845        0.8765304930
 C         -4.2840200876        1.3843754715        2.2361903141
 C         -5.0009516386        1.3728943495        3.4213746571
 C         -4.3620103412        0.9587454666        4.5773988467
 C         -3.0299806802        0.5539063176        4.5572160725
 C         -2.2960758728        0.5512882699        3.3863596144
 C         -2.9293161495        0.9774120504        2.2273781274
 C         -0.0022885724        1.0529368889        0.9734984209
 C         -0.0031571871        2.1008515521        1.8798090630
 N         -0.0030850133        2.9773963328        2.6381179385
 C          1.2273192718        0.5074720083        0.4830725541
 N          2.4394279690        1.0692377046        0.9105306317
 C          3.4862519483        0.3620252779        1.4565479163
 C          3.4968453142       -0.9284182507        1.9657927504
 C          4.6952835692       -1.4180473841        2.4492777798
 C          5.8473813010       -0.6369733791        2.4499369581
 C          5.8266613594        0.6707782130        1.9943306352
 C          4.6374741774        1.1815237059        1.5010630990
 C          4.2433019875        2.4582110529        0.9670588924
 C          4.9181702027        3.6448509323        0.7324097375
 C          4.2252363426        4.6988335778        0.1623500106
 C          2.8809976317        4.5748643025       -0.1780587275
 C          2.1884098998        3.3992389325        0.0406308053
 C          2.8758287576        2.3442346984        0.6238254511
 C          1.2296835217       -0.5588549024       -0.3898639906
 N          2.4429572465       -1.0898882871       -0.8519037626
 C          3.4451624368       -0.3598407844       -1.4491484814
 C          3.4019364215        0.9306154726       -1.9567467045
 C          4.5631404410        1.4455572985       -2.5011961074
 C          5.7296676216        0.6886558603       -2.5630021173
 C          5.7603844935       -0.6191129628       -2.1077528627
 C          4.6097295206       -1.1548164433       -1.5532270660
 C          4.2704051687       -2.4397441851       -1.0015058721
 C          4.9797676611       -3.6133729666       -0.8059787750
 C          4.3383348500       -4.6817834852       -0.2032563940
 C          3.0116330876       -4.5849239798        0.2081693927
 C          2.2851306743       -3.4233995792        0.0279366160
 C          2.9201560472       -2.3545076351       -0.5886250692
 H         -1.1311903967       -0.2989614041       -3.2827253480
 H         -2.3321093326       -0.2679073406       -5.4336026520
 H         -4.6883022528       -0.9172222477       -5.5723744854
 H         -5.9322682308       -1.6093332809       -3.5517952203
 H         -6.7043234005       -2.2317626738       -0.9568426570
 H         -6.7722009605       -2.6420918451        1.4788720800
 H         -4.7557737309       -2.4031872608        2.8491224244
 H         -2.6188565111       -1.6975990007        1.8449415839
 H         -2.4895592953        1.6754597463       -1.8065365919
 H         -4.5584504369        2.4451651765       -2.9003054680
 H         -6.6242299595        2.7444155077       -1.6184035843
 H         -6.6747082996        2.3293378701        0.8171966730
 H         -6.0362972401        1.6766681689        3.4398145724
 H         -4.9026388559        0.9452724411        5.5114639649
 H         -2.5607364463        0.2339587792        5.4751788508
 H         -1.2646905499        0.2373297038        3.3793404048
 H          2.6021484522       -1.5295835016        1.9899686465
 H          4.7366119191       -2.4257496123        2.8342006682
 H          6.7671605911       -1.0554647195        2.8287631666
 H          6.7164553863        1.2804703158        2.0243702595
 H          5.9626148832        3.7419021182        0.9858224604
 H          4.7324392120        5.6328439541       -0.0253979892
 H          2.3687372221        5.4142358162       -0.6236073088
 H          1.1474399910        3.3125795083       -0.2260563047
 H          2.4947852970        1.5129749224       -1.9340263796
 H          4.5631770111        2.4538977174       -2.8867855002
 H          6.6192989767        1.1261595479       -2.9895385260
 H          6.6601052499       -1.2098309992       -2.1853964367
 H          6.0110151479       -3.6899503985       -1.1146156298
 H          4.8728361319       -5.6061563705       -0.0455046017
 H          2.5406051396       -5.4347377898        0.6786743512
 H          1.2577261130       -3.3569260301        0.3482293352
