  69
  -111.577314814700       0.207794620535823      !
 N        -11.8999648695        0.0391143645        0.0829013917
 C        -10.7519242443        0.0313107492        0.0629169507
 C         -9.3430309916        0.0219925602        0.0430820819
 C         -8.6513517008        0.3519438954       -1.1271873578
 C         -7.2759355369        0.3508886394       -1.1372577053
 C         -6.5433404724        0.0043926932        0.0077342559
 C         -5.0888159738       -0.0046040485       -0.0093822964
 C         -4.3733700851        1.1537493978       -0.4398939939
 C         -5.0304779433        2.3459391338       -0.7677884712
 C         -4.3432813756        3.4335638013       -1.2910210578
 C         -2.9832254005        3.3422098693       -1.5120621512
 C         -2.2960217247        2.1960423974       -1.1302152606
 C         -2.9496775919        1.1182813998       -0.5237687491
 C         -2.2336766685       -0.0214710516       -0.0367194046
 C         -0.7869462747       -0.0309859613       -0.0483485888
 C         -0.0495368154        1.0409874515        0.4856890046
 C          1.3229928129        1.0246006763        0.4959819626
 C          2.0233742871       -0.0561363783       -0.0561208645
 C          3.4559649440       -0.0875481185       -0.0623243759
 N          4.2007314326       -1.0532841537       -0.5341159025
 C          5.4829773941       -0.6513192746       -0.3238234046
 C          6.7135064989       -1.2971210113       -0.6317689848
 C          6.7438312519       -2.5509223648       -1.2494852523
 C          7.9439387584       -3.1536093919       -1.5360818694
 C          9.1313402232       -2.5043573166       -1.2059691421
 C          9.1135934808       -1.2703288198       -0.5977594566
 C          7.9094305469       -0.6204531024       -0.2875448102
 C          7.8685687016        0.6823529065        0.3554543063
 C          9.0258647286        1.3880019498        0.7131212614
 C          8.9635543768        2.6204811690        1.3222131524
 C          7.7354103139        3.2147144489        1.6070696935
 C          6.5767155826        2.5603612031        1.2742833908
 C          6.6272859458        1.3047803724        0.6533850137
 C          5.4610514903        0.5937021892        0.2921475790
 O          4.1686106431        0.9527239055        0.4583618953
 C          1.3004076462       -1.1232426908       -0.6078990765
 C         -0.0710081448       -1.1149761078       -0.5902604252
 C         -2.9536577906       -1.1527427576        0.4645295181
 C         -2.3016534440       -2.2370963078        1.0608708437
 C         -2.9953525709       -3.3741078889        1.4580635622
 C         -4.3601108628       -3.4500431328        1.2617268456
 C         -5.0438406242       -2.3554544835        0.7486501449
 C         -4.3788911510       -1.1713371693        0.4073440749
 C         -7.2511297978       -0.3335612433        1.1708299052
 C         -8.6261236368       -0.3174022041        1.1955360677
 H         -9.2061135559        0.6017868907       -2.0197986508
 H         -6.7454717203        0.5818998310       -2.0494623872
 H         -6.0943443854        2.4278929529       -0.6066327993
 H         -4.8804607699        4.3365939759       -1.5386848018
 H         -2.4453272679        4.1610259410       -1.9654968477
 H         -1.2349282415        2.1365949044       -1.3161935110
 H         -0.5802705458        1.8625200473        0.9447110133
 H          1.8750318968        1.8404096554        0.9378969853
 H          5.8021585430       -3.0200768097       -1.4886569420
 H          7.9718906766       -4.1219867402       -2.0128261879
 H         10.0778807184       -2.9745374262       -1.4295872645
 H         10.0569043797       -0.8050841753       -0.3602906239
 H          9.9979784601        0.9673764261        0.5123236444
 H          9.8774664430        3.1336220278        1.5828588360
 H          7.7003330391        4.1819054565        2.0855698279
 H          5.6097587723        2.9939945525        1.4814307227
 H          1.8496153180       -1.9404115739       -1.0477111427
 H         -0.6201679394       -1.9259891325       -1.0459136516
 H         -1.2365638243       -2.1908245899        1.2264312781
 H         -2.4586706577       -4.1979837518        1.9035377751
 H         -4.9032059826       -4.3462617080        1.5208834791
 H         -6.1111904550       -2.4253275053        0.6061970220
 H         -6.7006292038       -0.5719882162        2.0691573629
 H         -9.1614195601       -0.5607928360        2.1016664503
  69
  -111.577296588000       0.203825205487449      !
 N        -11.8897418207       -0.0019823627       -0.3112898783
 C        -10.7430660243        0.0034450023       -0.2564902724
 C         -9.3358896636        0.0062928681       -0.1814957648
 C         -8.5770534701        0.6271386354       -1.1794459724
 C         -7.2041280464        0.6340688268       -1.0956117883
 C         -6.5399121421        0.0088143886       -0.0297580441
 C         -5.0868121135        0.0101886380        0.0436633946
 C         -4.3732855656        1.2453074827       -0.0290286584
 C         -5.0383076332        2.4768883226       -0.0633242906
 C         -4.3491468720        3.6698315492       -0.2411412854
 C         -2.9781440671        3.6505819209       -0.4040567697
 C         -2.2866335809        2.4487164261       -0.3072951359
 C         -2.9467687029        1.2429033401       -0.0483408938
 C         -2.2340173292        0.0167253440        0.1422372517
 C         -0.7862848676        0.0119186512        0.1581274191
 C         -0.0595388423        0.8922257481        0.9804139311
 C          1.3125859780        0.8877038573        0.9878191041
 C          2.0228458624        0.0227613921        0.1439391203
 C          3.4560197168        0.0495707520        0.1325082929
 N          4.2198690793        0.7944138193        0.8881093519
 C          5.4937648271        0.4872261396        0.5217835867
 C          6.7380085439        0.9802921922        1.0068158039
 C          6.7966573223        1.9314545683        2.0298105035
 C          8.0097808717        2.3854323299        2.4858062582
 C          9.1822840971        1.8901106980        1.9197153030
 C          9.1368028332        0.9554633352        0.9110495994
 C          7.9186028743        0.4658859583        0.4162214679
 C          7.8495603454       -0.5214118739       -0.6482080466
 C          8.9901716672       -1.0441469016       -1.2737659375
 C          8.9001677318       -1.9784597312       -2.2802119172
 C          7.6598087029       -2.4420481704       -2.7153577304
 C          6.5167361409       -1.9573037668       -2.1322477066
 C          6.5956308863       -1.0040474674       -1.1077484158
 C          5.4459225523       -0.4688032043       -0.4848747285
 O          4.1470990015       -0.7496926748       -0.7304922688
 C          1.3106267370       -0.8554282528       -0.6834998691
 C         -0.0617054147       -0.8714648099       -0.6612658183
 C         -2.9552308118       -1.2089948022        0.3018058384
 C         -2.3064998468       -2.4068623613        0.6191394069
 C         -2.9958712342       -3.6121698145        0.6839351076
 C         -4.3518814138       -3.6423962985        0.4249471670
 C         -5.0343433365       -2.4568485079        0.1828342062
 C         -4.3767569193       -1.2207574318        0.1829260657
 C         -7.3139351045       -0.6162402311        0.9590521515
 C         -8.6880436912       -0.6119695253        0.8934180534
 H         -9.0779434985        1.0944999890       -2.0147961186
 H         -6.6203291389        1.0934897726       -1.8799711995
 H         -6.1104870578        2.5050819584        0.0559711445
 H         -4.8925583572        4.6021687307       -0.2689406336
 H         -2.4352685095        4.5645451824       -0.5920169152
 H         -1.2165685537        2.4496932575       -0.4445663655
 H         -0.5997955210        1.5435916250        1.6518841516
 H          1.8708621521        1.5426454368        1.6376119956
 H          5.8660691770        2.2883710436        2.4430066372
 H          8.0594256545        3.1186398745        3.2768970268
 H         10.1390069462        2.2429468623        2.2763838338
 H         10.0691966446        0.5991635455        0.5031194741
 H          9.9708985545       -0.7142356204       -0.9710011868
 H          9.8017541408       -2.3573338243       -2.7387110949
 H          7.6031042825       -3.1756365047       -3.5055039445
 H          5.5407310104       -2.2944184884       -2.4481531907
 H          1.8533632094       -1.5144189179       -1.3442773029
 H         -0.6025864339       -1.5312544960       -1.3240930658
 H         -1.2478563145       -2.3973699020        0.8278298813
 H         -2.4626030965       -4.5202667060        0.9216082587
 H         -4.8902014613       -4.5781763848        0.4260433889
 H         -6.0945233085       -2.4951030751       -0.0147584985
 H         -6.8180538657       -1.0719370805        1.8037138771
 H         -9.2758360789       -1.0787528749        1.6703658532
  69
  -111.577107820800       0.166919275184691      !
 N        -11.8631161098        0.0457111438        0.5976939555
 C        -10.7214162723        0.0364188076        0.4774548054
 C         -9.3198869365        0.0195085973        0.3319709143
 C         -8.7334543767        0.3642573977       -0.8904349793
 C         -7.3639648166        0.3592183078       -1.0235987170
 C         -6.5340046530       -0.0045224688        0.0470847750
 C         -5.0854317665       -0.0099773460       -0.0857831014
 C         -4.4008170066        1.1549357639       -0.5462391030
 C         -5.0783259693        2.3437470046       -0.8443627559
 C         -4.4203457163        3.4354063228       -1.3958352256
 C         -3.0693981598        3.3548645710       -1.6707609502
 C         -2.3587895718        2.2147370479       -1.3145123744
 C         -2.9815163968        1.1312355856       -0.6867466974
 C         -2.2338540332       -0.0000718157       -0.2270324874
 C         -0.7877365973        0.0383053136       -0.2375916823
 C         -0.0955051315        1.1289875372        0.3220658887
 C          1.2746148534        1.1507306153        0.3715464718
 C          2.0212754266        0.0930050605       -0.1672566992
 C          3.4514472250        0.1207325125       -0.0842081861
 N          4.1677704277        1.0704406640        0.4588908045
 C          5.4585297033        0.6612810670        0.3331610425
 C          6.6671269419        1.2853494226        0.7522621297
 C          6.6604049878        2.5227284091        1.4028703027
 C          7.8393590250        3.1012948974        1.8037144974
 C          9.0424040482        2.4441768454        1.5562092061
 C          9.0610838110        1.2263683773        0.9161822677
 C          7.8793918041        0.6011478039        0.4903412944
 C          7.8760962808       -0.6858486173       -0.1849422327
 C          9.0510376051       -1.3970227704       -0.4661628700
 C          9.0248071981       -2.6161745010       -1.1039465034
 C          7.8169640421       -3.1906792766       -1.4960770073
 C          6.6421349535       -2.5296252480       -1.2421258301
 C          6.6558991831       -1.2872704326       -0.5932890722
 C          5.4718166903       -0.5708357387       -0.3085175457
 O          4.1918639128       -0.9143685804       -0.5755478741
 C          1.3456279565       -0.9801770850       -0.7627997878
 C         -0.0268873027       -1.0106653275       -0.7841663844
 C         -2.9221159442       -1.1536579630        0.2669353290
 C         -2.2418548091       -2.2491836543        0.8094724726
 C         -2.9123203393       -3.4028318610        1.1980439594
 C         -4.2831391458       -3.4839283010        1.0524659112
 C         -4.9928180018       -2.3791848703        0.5999256184
 C         -4.3484189480       -1.1822584302        0.2649065711
 C         -7.1375912070       -0.3622355340        1.2624360786
 C         -8.5047722502       -0.3425377503        1.4102408198
 H         -9.3647010561        0.6288939086       -1.7263098101
 H         -6.9165551178        0.5996782020       -1.9770552732
 H         -6.1345025043        2.4202692603       -0.6371682015
 H         -4.9735507700        4.3346094822       -1.6212291073
 H         -2.5559863077        4.1779138573       -2.1443501032
 H         -1.3038547166        2.1647398638       -1.5358152158
 H         -0.6632471383        1.9305751166        0.7715135662
 H          1.8051638659        1.9676816066        0.8339805397
 H          5.7075022352        2.9981924145        1.5759779863
 H          7.8388042083        4.0565580707        2.3069239021
 H          9.9723443986        2.8949040098        1.8710156820
 H         10.0153856761        0.7539970099        0.7463483259
 H         10.0084612593       -0.9912213526       -0.1816300322
 H          9.9514118821       -3.1341685234       -1.3031763708
 H          7.8100968831       -4.1480599084       -1.9951352756
 H          5.6902018051       -2.9481805759       -1.5331546812
 H          1.9163475360       -1.7823632510       -1.2061530377
 H         -0.5383458961       -1.8274892331       -1.2726499902
 H         -1.1725171663       -2.1981172553        0.9421946874
 H         -2.3535274452       -4.2349797936        1.5989670227
 H         -4.8099643009       -4.3912696435        1.3062509610
 H         -6.0652474634       -2.4499940757        0.5019305501
 H         -6.5098700028       -0.6197779277        2.1031623407
 H         -8.9581327350       -0.5999282832        2.3564538196
  69
  -111.576987948100       0.147033674775655      !
 N        -11.8986811977        0.1298785461        0.0849613259
 C        -10.7510660685        0.1055166578        0.0650336416
 C         -9.3421891807        0.0802617198        0.0428884987
 C         -8.6647569453       -0.4569107546       -1.0569670719
 C         -7.2892080277       -0.4729620426       -1.0772650522
 C         -6.5439506215        0.0263961165        0.0006806705
 C         -5.0887086630       -0.0050449379       -0.0169027389
 C         -4.3736300876        0.6122726646       -1.0885500229
 C         -5.0389821850        1.3378549653       -2.0847364771
 C         -4.3482076956        1.9960743060       -3.0935012180
 C         -2.9679693294        1.9905540564       -3.0930842287
 C         -2.2798897143        1.3212764533       -2.0883487061
 C         -2.9472804163        0.5943593617       -1.0965822304
 C         -2.2333440149       -0.0566303753       -0.0388623025
 C         -0.7861250298       -0.0723180671       -0.0424289048
 C         -0.0552115479        0.3542347585        1.0807896895
 C          1.3174378727        0.3648385230        1.0737902920
 C          2.0236107317       -0.0800856329       -0.0517801643
 C          3.4561840158       -0.0788425443       -0.0795989301
 N          4.2033743840       -0.4596660083       -1.0830275569
 C          5.4843174109       -0.2762378566       -0.6648787979
 C          6.7157501115       -0.5154040455       -1.3374074237
 C          6.7479549423       -1.0255562232       -2.6386156660
 C          7.9487875990       -1.2456885609       -3.2671763226
 C          9.1348975945       -0.9558246891       -2.5965989135
 C          9.1152259150       -0.4536920859       -1.3157630014
 C          7.9102092171       -0.2147799483       -0.6378786073
 C          7.8667298681        0.3146694043        0.7149768106
 C          9.0226280919        0.6284213722        1.4434815388
 C          8.9584635990        1.1282633070        2.7240515631
 C          7.7296111600        1.3413366664        3.3463137256
 C          6.5721822006        1.0492278341        2.6705859588
 C          6.6245181910        0.5405121679        1.3655447208
 C          5.4596094104        0.2289149993        0.6291505941
 O          4.1663352122        0.3532333968        1.0022123385
 C          1.3067699833       -0.5276952379       -1.1707125121
 C         -0.0647352703       -0.5101083702       -1.1686806266
 C         -2.9544499546       -0.6890828824        1.0249436831
 C         -2.2978157986       -1.4466641042        2.0008033707
 C         -2.9935990277       -2.0991428986        3.0111598217
 C         -4.3729693883       -2.0541574191        3.0340413676
 C         -5.0554420992       -1.3627234911        2.0420397662
 C         -4.3800410728       -0.6551648172        1.0397269965
 C         -7.2370504598        0.5545553447        1.0997277597
 C         -8.6120537953        0.5911702277        1.1213506845
 H         -9.2306154254       -0.8610899548       -1.8836870441
 H         -6.7692017473       -0.9107030667       -1.9169689134
 H         -6.1153019687        1.4085620384       -2.0607496873
 H         -4.8955744515        2.5291244661       -3.8561714832
 H         -2.4165732549        2.5212602415       -3.8544662187
 H         -1.2033995996        1.3854068222       -2.0662528424
 H         -0.5911511653        0.7305316404        1.9402009977
 H          1.8650615295        0.7253067215        1.9315694516
 H          5.8071870054       -1.2373126989       -3.1224210471
 H          7.9783662009       -1.6409470726       -4.2714967452
 H         10.0820294260       -1.1273225191       -3.0870948622
 H         10.0576418780       -0.2441087945       -0.8355910422
 H          9.9951336628        0.4799521555        1.0025247995
 H          9.8713879001        1.3581130783        3.2534703517
 H          7.6930735046        1.7327075293        4.3518773133
 H          5.6048498511        1.2026525897        3.1252301031
 H          1.8609554350       -0.8871683476       -2.0230518240
 H         -0.6094366629       -0.8856373913       -2.0226784579
 H         -1.2246967387       -1.5485936657        1.9601095560
 H         -2.4502601088       -2.6562235735        3.7594268463
 H         -4.9272299873       -2.5729349671        3.8015399234
 H         -6.1339160718       -1.3929282856        2.0360957112
 H         -6.6752694439        0.9707100991        1.9233647349
 H         -9.1367550216        1.0166735380        1.9643928990
  69
  -111.576701089200       0.108538943238448      !
 N        -11.8263011250        0.2645819163       -0.7772650161
 C        -10.6903293556        0.2148846441       -0.6191071009
 C         -9.2950706195        0.1546349964       -0.4304649214
 C         -8.4744350570       -0.3946319587       -1.4215234765
 C         -7.1134523209       -0.4542024557       -1.2314620393
 C         -6.5226001494        0.0469078153       -0.0621592972
 C         -5.0781445570       -0.0026065219        0.1117225518
 C         -4.3436118962        1.1961580423        0.3665233722
 C         -4.9777491021        2.4444636129        0.4016164824
 C         -4.2653215700        3.6222145934        0.5838927650
 C         -2.8888712498        3.5806687352        0.6740305580
 C         -2.2273963319        2.3618326878        0.5865611470
 C         -2.9207232501        1.1521307190        0.4710124255
 C         -2.2326856670       -0.0968709714        0.3302959357
 C         -0.7862759503       -0.1404709326        0.3453131086
 C         -0.0344509376        0.4460984018        1.3801359985
 C          1.3374354850        0.4384993651        1.3537201389
 C          2.0224500634       -0.1385296318        0.2751698387
 C          3.4530410838       -0.0811790804        0.2205785257
 N          4.2354375850        0.5061830608        1.0883060691
 C          5.4959219133        0.3350335501        0.6063538954
 C          6.7482971830        0.7733642027        1.1219615371
 C          6.8321525549        1.4981983607        2.3144728524
 C          8.0517488797        1.9159574913        2.7876168177
 C          9.2053031657        1.6110548943        2.0686570311
 C          9.1349557906        0.8979379523        0.8941095720
 C          7.9093678061        0.4526120991        0.3762034347
 C          7.8137401638       -0.3001083912       -0.8634454818
 C          8.9348359975       -0.6389427256       -1.6339598979
 C          8.8198483834       -1.3517036552       -2.8055962193
 C          7.5725655100       -1.7656158952       -3.2701416691
 C          6.4478525185       -1.4555318997       -2.5487609477
 C          6.5521867792       -0.7290948909       -1.3545964933
 C          5.4218751953       -0.3815773605       -0.5815940096
 O          4.1199346422       -0.6480236962       -0.8261680013
 C          1.2855041338       -0.7462149042       -0.7505550042
 C         -0.0857887918       -0.7586636825       -0.7062591479
 C         -2.9784888412       -1.3032202547        0.1304945602
 C         -2.3548174884       -2.5551972312        0.1559636880
 C         -3.0759321689       -3.7328824731        0.0016150445
 C         -4.4493452954       -3.6848971307       -0.1306490445
 C         -5.1021314854       -2.4598036987       -0.1001513931
 C         -4.3976603088       -1.2545013783        0.0107900580
 C         -7.3575714657        0.5955789364        0.9217521944
 C         -8.7217316337        0.6431262747        0.7483571035
 H         -8.9180079903       -0.7641395156       -2.3346328112
 H         -6.4794206877       -0.8584679116       -2.0072053590
 H         -6.0459271046        2.5014054889        0.2620850648
 H         -4.7913015030        4.5639439148        0.6269893849
 H         -2.3179884954        4.4898078806        0.7878468373
 H         -1.1490461837        2.3587526051        0.5861098287
 H         -0.5541183159        0.8653186811        2.2294529256
 H          1.9151036772        0.8735648848        2.1537285447
 H          5.9153987355        1.7145132907        2.8406784071
 H          8.1208238495        2.4763878707        3.7079244383
 H         10.1669519032        1.9381318481        2.4365388273
 H         10.0533547004        0.6852230697        0.3706176076
 H          9.9200162455       -0.3398199278       -1.3141562589
 H          9.7070201978       -1.5935716940       -3.3721826824
 H          7.4962020463       -2.3249605330       -4.1904613504
 H          5.4670907730       -1.7605355833       -2.8822016464
 H          1.8087522108       -1.1894838356       -1.5842955040
 H         -0.6459792335       -1.1961792812       -1.5199263350
 H         -1.2900210690       -2.6135494438        0.3201858754
 H         -2.5584248714       -4.6803336108        0.0069460219
 H         -5.0231660121       -4.5935241663       -0.2335991988
 H         -6.1802615855       -2.4427018062       -0.1420074356
 H         -6.9204466756        0.9503031582        1.8438188274
 H         -9.3589131438        1.0526973462        1.5186470573
  69
  -111.576608866800       9.844714099501189E-002 !
 N        -11.8998138679        0.0810147221        0.0781367624
 C        -10.7512902613        0.0721941071        0.0581525867
 C         -9.3426282749        0.0527045128        0.0355683219
 C         -8.6631059101       -0.5885826933       -1.0051745221
 C         -7.2871526999       -0.5980478819       -1.0256027482
 C         -6.5452769358        0.0124522571       -0.0048618971
 C         -5.0887176549       -0.0092131475       -0.0202147565
 C         -4.3779766069        0.5251420449       -1.1373462514
 C         -5.0497347497        1.1486645323       -2.1968204155
 C         -4.3638457707        1.7422038563       -3.2476637663
 C         -2.9841155616        1.7794550540       -3.2287518440
 C         -2.2916960070        1.2080756167       -2.1680618604
 C         -2.9515348413        0.5357582314       -1.1338247893
 C         -2.2321279762       -0.0316579023       -0.0312168348
 C         -0.7866347857       -0.0397733637       -0.0365893127
 C         -0.0518724947        0.4316350224        1.0673177582
 C          1.3204824581        0.4380579411        1.0591173299
 C          2.0253214401       -0.0422972396       -0.0529354058
 C          3.4573785502       -0.0441880231       -0.0835502580
 N          4.2002492209       -0.3397032440       -1.1186536897
 C          5.4829049229       -0.2003661937       -0.6896274920
 C          6.7110808202       -0.3713629389       -1.3883138204
 C          6.7365022166       -0.7263009427       -2.7402508845
 C          7.9341264894       -0.8698956886       -3.3966343929
 C          9.1237173905       -0.6596169563       -2.7028688262
 C          9.1107100567       -0.3129619715       -1.3713783246
 C          7.9091825718       -0.1565029433       -0.6639445683
 C          7.8724295077        0.2097549453        0.7420754111
 C          9.0323354231        0.4003668116        1.5058709591
 C          8.9747318230        0.7465836823        2.8365305774
 C          7.7486767471        0.9228003926        3.4756597663
 C          6.5874756018        0.7460191313        2.7671511653
 C          6.6330572226        0.3902910465        1.4121063567
 C          5.4642263176        0.1818628362        0.6461545362
 O          4.1724143686        0.2858462462        1.0306902849
 C          1.3059516736       -0.5246018193       -1.1561205621
 C         -0.0650458658       -0.5162916974       -1.1483083276
 C         -2.9512638317       -0.5923617762        1.0745986148
 C         -2.2939210044       -1.2768515912        2.1024542842
 C         -2.9875407338       -1.8454361129        3.1637620317
 C         -4.3666792118       -1.7919669588        3.1902727909
 C         -5.0508284289       -1.1828613032        2.1472641597
 C         -4.3770291984       -0.5616863461        1.0878011950
 C         -7.2401236047        0.6441023072        1.0363269819
 C         -8.6153974909        0.6744927333        1.0559646176
 H         -9.2269341994       -1.0775339975       -1.7862516107
 H         -6.7648272602       -1.1137815786       -1.8182704808
 H         -6.1277900485        1.1902626452       -2.1905617592
 H         -4.9149486828        2.1950411847       -4.0579970741
 H         -2.4370416917        2.2676480437       -4.0210696221
 H         -1.2181867238        1.3081514804       -2.1372577276
 H         -0.5850665637        0.8463827806        1.9105422836
 H          1.8695860158        0.8284197830        1.9028208805
 H          5.7930695166       -0.8766176450       -3.2416785130
 H          7.9584528755       -1.1420978117       -4.4412046887
 H         10.0682274235       -0.7685192434       -3.2158280529
 H         10.0555526431       -0.1574532424       -0.8755738936
 H         10.0028197523        0.2727027363        1.0539994982
 H          9.8905923422        0.8816798017        3.3929100859
 H          7.7172644475        1.1937405288        4.5202937273
 H          5.6221343079        0.8709336953        3.2346144576
 H          1.8585225547       -0.9095719997       -1.9983107719
 H         -0.6099230883       -0.9303662598       -1.9840972814
 H         -1.2217941312       -1.3890906778        2.0648269158
 H         -2.4426353031       -2.3442881227        3.9509903722
 H         -4.9191056021       -2.2442503339        4.0000569553
 H         -6.1294136982       -1.2106576396        2.1467438199
 H         -6.6799581134        1.1431519254        1.8136888983
 H         -9.1422205171        1.1793744190        1.8525215983
  69
  -111.576251404700       6.744113978292150E-002 !
 N        -11.9027829117       -0.0069236611        0.0347489531
 C        -10.7546542502       -0.0129136071        0.0269007513
 C         -9.3456836622       -0.0138180682        0.0185294006
 C         -8.6469515219        0.5242749029       -1.0678107116
 C         -7.2716546694        0.5309937584       -1.0665750704
 C         -6.5443687615       -0.0103448267        0.0047561455
 C         -5.0907625848       -0.0057522468       -0.0018426464
 C         -4.3822577177        1.2094189083       -0.2477387333
 C         -5.0456424396        2.4358293112       -0.3778842462
 C         -4.3698375735        3.5899087633       -0.7504761823
 C         -3.0173796743        3.5314538938       -1.0253240866
 C         -2.3222419263        2.3444601896       -0.8277893386
 C         -2.9596220897        1.1925496356       -0.3547869934
 C         -2.2324027897        0.0043897737       -0.0208526870
 C         -0.7882147177        0.0023153235       -0.0357048095
 C         -0.0472932201        1.0346291868        0.5707629368
 C          1.3251967581        1.0235986726        0.5691509634
 C          2.0257979415       -0.0239024883       -0.0431548443
 C          3.4582505709       -0.0651723618       -0.0451245309
 N          4.1907393911       -1.0971206321       -0.3738104010
 C          5.4776116024       -0.6860037309       -0.2178993089
 C          6.6983535101       -1.3952328028       -0.3982784678
 C          6.7098504523       -2.7429220827       -0.7698584430
 C          7.9004340327       -3.4125097484       -0.9108381216
 C          9.0967004995       -2.7365829597       -0.6810822026
 C          9.0974542725       -1.4088281266       -0.3200630054
 C          7.9034801575       -0.6880324576       -0.1666728622
 C          7.8806873264        0.7141355584        0.2151664033
 C          9.0482534564        1.4687205194        0.3955915643
 C          9.0042832249        2.7962466347        0.7556584294
 C          7.7850254852        3.4403842667        0.9586242983
 C          6.6166618893        2.7411412056        0.7914257515
 C          6.6482317221        1.3903844845        0.4184721667
 C          5.4716095649        0.6376876436        0.2041027151
 O          4.1831249528        1.0304308665        0.3220670382
 C          1.3017601506       -1.0555817892       -0.6577587126
 C         -0.0689319909       -1.0406583807       -0.6527671658
 C         -2.9475721020       -1.1876050530        0.3274605298
 C         -2.2960338396       -2.3331768561        0.7964828611
 C         -2.9797178678       -3.5249672035        1.0048875189
 C         -4.3347402148       -3.5944721470        0.7457766833
 C         -5.0236730810       -2.4463596633        0.3787932998
 C         -4.3711069252       -1.2151594881        0.2382041305
 C         -7.2596213095       -0.5547808444        1.0824677161
 C         -8.6349279813       -0.5513123176        1.0971684487
 H         -9.1966151713        0.9271931162       -1.9060721688
 H         -6.7361369474        0.9222826055       -1.9193257188
 H         -6.1049427562        2.4902311533       -0.1789978402
 H         -4.9099875925        4.5198019673       -0.8445144637
 H         -2.4910036447        4.4066735429       -1.3751383763
 H         -1.2680604886        2.3129257587       -1.0551449477
 H         -0.5750629200        1.8166700665        1.0970353953
 H          1.8773150135        1.8106330964        1.0607303440
 H          5.7614847667       -3.2312259297       -0.9320731385
 H          7.9139861903       -4.4546155475       -1.1931173563
 H         10.0355167517       -3.2608224636       -0.7856006406
 H         10.0467634934       -0.9275122452       -0.1469816142
 H         10.0135567771        1.0129614243        0.2444556842
 H          9.9255371440        3.3461532528        0.8803818326
 H          7.7642554371        4.4822144463        1.2411805907
 H          5.6562983944        3.2135341899        0.9350459363
 H          1.8502229839       -1.8466508036       -1.1438427733
 H         -0.6155751257       -1.8118740865       -1.1754087459
 H         -1.2394331280       -2.2940925918        1.0109594894
 H         -2.4419022257       -4.3949746905        1.3500210458
 H         -4.8665125876       -4.5282724489        0.8484636640
 H         -6.0848025940       -2.5090532277        0.1925384529
 H         -6.7149892654       -0.9455721428        1.9296608359
 H         -9.1753525128       -0.9558644206        1.9406357800
