  73
  -119.034000503000       0.227966629168769      !
 C         -6.5887492886        3.5855514347        0.1712169912
 C         -5.2123532886        3.7527442159        0.1676450136
 C         -4.3634233221        2.6549929163        0.1133084739
 C         -4.9204236472        1.3968915649        0.0632134684
 C         -6.3111468130        1.2218793750        0.0663315493
 C         -7.1526764611        2.3205070283        0.1203252628
 C         -6.5976293310       -0.2037407295        0.0093587270
 C         -7.7989232761       -0.8929193692       -0.0127748062
 C         -7.7679529936       -2.2771599602       -0.0703599789
 C         -6.5626364456       -2.9619529276       -0.1047221562
 C         -5.3551383911       -2.2765583949       -0.0826127045
 C         -5.3825119097       -0.9010985283       -0.0257752651
 C         -4.2067220231        0.0588575048        0.0051524597
 C         -3.3970038485       -0.0613909244       -1.2601740688
 C         -4.0275933665        0.1330207070       -2.4795117040
 C         -3.3338711452        0.0252020593       -3.6706462815
 C         -1.9828555088       -0.2847530865       -3.6452689839
 C         -1.3375424310       -0.4814202267       -2.4431828049
 C         -2.0321941332       -0.3717895189       -1.2330346453
 N         -1.3739022897       -0.5695739255       -0.0357546858
 C          0.0154942853       -0.8871996630       -0.0525406167
 C          0.4186647584       -2.2173750505       -0.0744764679
 C          1.7648351817       -2.5335447292       -0.0754483537
 C          2.7369049169       -1.5323661022       -0.0543541586
 N          4.0399726082       -1.8097130114       -0.0420439009
 C          4.9534404219       -0.8470723021       -0.0199740675
 C          6.3448073068       -1.1532798258        0.0075937320
 C          6.7942255503       -2.4845665069        0.0214499626
 C          8.1412909516       -2.7395912041        0.0569496855
 C          9.0246648974       -1.6506363133        0.0770778600
 N          8.6308326723       -0.4046109011        0.0610662555
 C          7.3263594195       -0.1292310629        0.0268510775
 C          6.9059177506        1.2486522354        0.0110890017
 N          7.8349222022        2.2056985066        0.0153949415
 C          7.4660180065        3.4594334675        0.0039543844
 C          6.1252092331        3.8697037022       -0.0096583893
 C          5.1497071047        2.9056846355       -0.0155793799
 C          5.5200085941        1.5502572690       -0.0077725155
 C          4.5358960476        0.5192130499       -0.0191726331
 N          3.2411391330        0.8094122963       -0.0289225909
 C          2.3148030134       -0.1496757780       -0.0411059971
 C          0.9521509594        0.1381990536       -0.0388215766
 C         -2.0166416211       -0.4578877273        1.1814664898
 C         -1.3053433346       -0.6459131619        2.3720276169
 C         -1.9352279108       -0.5361699754        3.5933932195
 C         -3.2871530742       -0.2371046579        3.6578563602
 C         -3.9968114227       -0.0493243039        2.4861104954
 C         -3.3817452794       -0.1549543144        1.2481171793
 H         -7.2297188105        4.4538053399        0.2147554920
 H         -4.7955501436        4.7481222446        0.2082928928
 H         -3.2909843555        2.7854289680        0.1112599789
 H         -8.2253197033        2.1959376555        0.1238293064
 H         -8.7398384274       -0.3637585824        0.0137963354
 H         -8.6946741912       -2.8316708970       -0.0884673179
 H         -6.5634010778       -4.0409513799       -0.1493134492
 H         -4.4161779360       -2.8102880741       -0.1100845945
 H         -5.0807743443        0.3720281318       -2.4880581754
 H         -3.8418895764        0.1802368307       -4.6096704450
 H         -1.4281159656       -0.3738034137       -4.5670794081
 H         -0.2862096637       -0.7222462072       -2.4304762829
 H         -0.3256586008       -2.9988516989       -0.0874032402
 H          2.0921944007       -3.5607701589       -0.0889618448
 H          6.0559160855       -3.2732739547        0.0053042461
 H          8.5215410616       -3.7489776995        0.0703784274
 H         10.0950562716       -1.8060091345        0.1077226029
 H          8.2676758663        4.1861960539        0.0058247880
 H          5.8773008585        4.9195657981       -0.0158924440
 H          4.0968801485        3.1479578728       -0.0271584272
 H          0.6363272030        1.1692301839       -0.0246733970
 H         -0.2531052791       -0.8784920197        2.3303745752
 H         -1.3667526725       -0.6847152787        4.4990148988
 H         -3.7837276461       -0.1501923770        4.6117186049
 H         -5.0506812650        0.1837966725        2.5251860066
  73
  -119.033954888400       0.217224226204285      !
 C         -5.8674427696        3.8351462360       -0.2272115763
 C         -4.4856351017        3.7382542070       -0.2870685624
 C         -3.8568795825        2.5018149504       -0.2214610655
 C         -4.6378815651        1.3751721570       -0.0950534606
 C         -6.0347785139        1.4665193966       -0.0341580456
 C         -6.6560346338        2.7025480996       -0.1004258924
 C         -6.5808101765        0.1240114774        0.0969576615
 C         -7.8875995006       -0.3237065160        0.1967795685
 C         -8.1143976362       -1.6858961843        0.3152257050
 C         -7.0588798080       -2.5848233608        0.3338968049
 C         -5.7464155608       -2.1419352157        0.2337615386
 C         -5.5172298215       -0.7893243004        0.1155541470
 C         -4.1868160385       -0.0734154354       -0.0062783439
 C         -3.4682155219       -0.4606782490       -1.2730725816
 C         -4.1674687640       -0.4461642139       -2.4702021402
 C         -3.5429004324       -0.7349882998       -3.6692052851
 C         -2.1879738349       -1.0264944254       -3.6753995311
 C         -1.4752771055       -1.0454958438       -2.4955993719
 C         -2.1046582261       -0.7786090678       -1.2742356485
 N         -1.3863152925       -0.8176408883       -0.0935796520
 C          0.0134837832       -1.0701526040       -0.1385323735
 C          0.4878221964       -2.3566360010       -0.3710902986
 C          1.8488422007       -2.5946560420       -0.4275720825
 C          2.7674764243       -1.5597322861       -0.2466523460
 N          4.0832306806       -1.7591355521       -0.3074831228
 C          4.9442191114       -0.7643861107       -0.1315762458
 C          6.3497554950       -0.9838430222       -0.2115580815
 C          6.8698562435       -2.2588918764       -0.4914936037
 C          8.2284928764       -2.4297768650       -0.5663988334
 C          9.0522872171       -1.3141912938       -0.3577686043
 N          8.5922773796       -0.1195440424       -0.0949540880
 C          7.2750341182        0.0739129916       -0.0171002652
 C          6.7816515594        1.3962062113        0.2717871210
 N          7.6579411006        2.3837081727        0.4619518364
 C          7.2222634786        3.5876966584        0.7236360593
 C          5.8615229734        3.9129928527        0.8184229534
 C          4.9392512430        2.9162629586        0.6268519407
 C          5.3818367298        1.6127985965        0.3448851984
 C          4.4544078616        0.5499130672        0.1407483400
 N          3.1463334777        0.7628710479        0.2013686767
 C          2.2722974278       -0.2265247901        0.0133795669
 C          0.8969253353       -0.0153242441        0.0545632018
 C         -1.9901405968       -0.6253106539        1.1350145653
 C         -1.2565046660       -0.7979207960        2.3144877142
 C         -1.8473562909       -0.6096179605        3.5455614146
 C         -3.1836601937       -0.2514825505        3.6321491583
 C         -3.9190913063       -0.0926236663        2.4723642244
 C         -3.3431760532       -0.2786305775        1.2249257405
 H         -6.3349181393        4.8073712823       -0.2806593166
 H         -3.8913869124        4.6344900460       -0.3864072595
 H         -2.7802139916        2.4267069596       -0.2695247452
 H         -7.7318541561        2.7837655181       -0.0551414438
 H         -8.7129642721        0.3724630184        0.1830853206
 H         -9.1270547112       -2.0531258570        0.3945651768
 H         -7.2595456948       -3.6417372519        0.4277784361
 H         -4.9240290645       -2.8424219729        0.2488536565
 H         -5.2183528834       -0.1979330262       -2.4554879843
 H         -4.1040692835       -0.7214727488       -4.5904396565
 H         -1.6815897069       -1.2386726020       -4.6049095660
 H         -0.4198350012       -1.2658433588       -2.5132194542
 H         -0.2130980271       -3.1654788146       -0.5109553086
 H          2.2288065456       -3.5868782119       -0.6114278738
 H          6.1747529319       -3.0723680407       -0.6416571908
 H          8.6622998934       -3.3937661155       -0.7811655025
 H         10.1294018038       -1.4033836747       -0.4090783584
 H          7.9835805974        4.3429768046        0.8678194744
 H          5.5576392707        4.9245641981        1.0376431592
 H          3.8750313976        3.0932926473        0.6854567854
 H          0.5279557250        0.9806083846        0.2417902553
 H         -0.2185355110       -1.0847627795        2.2571367240
 H         -1.2617135612       -0.7457120750        4.4421545040
 H         -3.6482982309       -0.1003896468        4.5940126039
 H         -4.9619316170        0.1822519731        2.5278604694
  73
  -119.033417030700       0.122949275613709      !
 C         -7.5046475591        2.9603436639        0.3335163279
 C         -6.2307072196        3.4979461460        0.4371539630
 C         -5.1072570378        2.6862135214        0.3489060002
 C         -5.2869414076        1.3345971031        0.1543410044
 C         -6.5731699975        0.7864993445        0.0466699597
 C         -7.6897938015        1.6008363652        0.1369562567
 C         -6.4483275452       -0.6490936213       -0.1551244891
 C         -7.4070426104       -1.6338663351       -0.3259530663
 C         -6.9887514409       -2.9423160555       -0.5093428844
 C         -5.6401334400       -3.2637451102       -0.5229333759
 C         -4.6742018397       -2.2810437303       -0.3506420494
 C         -5.0872575052       -0.9807707864       -0.1669350161
 C         -4.2287574047        0.2581781989        0.0386512860
 C         -3.3422583648        0.4541365169       -1.1641734123
 C         -3.9103367863        0.8432568711       -2.3671492499
 C         -3.1511747155        0.9441605587       -3.5185188896
 C         -1.8027781187        0.6275110139       -3.4726982553
 C         -1.2185314658        0.2406017302       -2.2852014492
 C         -1.9722585806        0.1663415001       -1.1087513491
 N         -1.3772218998       -0.1939736658        0.0864254756
 C         -0.0134372108       -0.5977147909        0.1050341725
 C          0.2909630704       -1.9418160649        0.2907935614
 C          1.6087230692       -2.3574169539        0.3306214182
 C          2.6536128843       -1.4448482305        0.1814112748
 N          3.9317715191       -1.8172680613        0.2233179322
 C          4.9154493163       -0.9376155205        0.0829396608
 C          6.2796456892       -1.3452113781        0.1358267297
 C          6.6267120677       -2.6903670960        0.3472986126
 C          7.9508989426       -3.0437467203        0.3953514448
 C          8.9145461435       -2.0384260529        0.2295982296
 N          8.6162871421       -0.7816285421        0.0314249361
 C          7.3360030824       -0.4113452059       -0.0194066517
 C          7.0206695256        0.9772241465       -0.2378324964
 N          8.0195612724        1.8482233964       -0.3885209685
 C          7.7468675696        3.1108456039       -0.5871556215
 C          6.4410546223        3.6176110405       -0.6526871999
 C          5.3951990638        2.7435136105       -0.5002881682
 C          5.6614644795        1.3805439246       -0.2861267246
 C          4.6019290732        0.4407908656       -0.1246064213
 N          3.3328047652        0.8255024804       -0.1683942232
 C          2.3361908072       -0.0485836135       -0.0203043118
 C          0.9999258718        0.3416412292       -0.0460152963
 C         -2.0615477215       -0.1274425167        1.2865263154
 C         -1.3757259929       -0.2799860346        2.4967171467
 C         -2.0457669401       -0.2081024407        3.6993599681
 C         -3.4120965278        0.0231252119        3.7249810046
 C         -4.0954465428        0.1859524397        2.5339570970
 C         -3.4390716746        0.1189489353        1.3148246067
 H         -8.3639062824        3.6105959737        0.4073708585
 H         -6.1106512043        4.5602677378        0.5895002460
 H         -4.1148525039        3.1048603492        0.4317586236
 H         -8.6837944677        1.1866993071        0.0568602280
 H         -8.4586143952       -1.3887089811       -0.3184118326
 H         -7.7225816896       -3.7230827114       -0.6453786737
 H         -5.3372207204       -4.2898765620       -0.6697945024
 H         -3.6236537560       -2.5325348363       -0.3636554275
 H         -4.9674206278        1.0617965689       -2.3973243055
 H         -3.6099038724        1.2518070495       -4.4452519794
 H         -1.2011110335        0.6807032686       -4.3674626123
 H         -0.1701382416       -0.0099696148       -2.2631482293
 H         -0.5088760731       -2.6565351467        0.4105606787
 H          1.8568411916       -3.3965435583        0.4759348668
 H          5.8302645592       -3.4105108911        0.4675148965
 H          8.2538108633       -4.0663437305        0.5572037473
 H          9.9704526635       -2.2726398899        0.2616488736
 H          8.6014348195        3.7646358227       -0.7018231875
 H          6.2731985831        4.6701164865       -0.8193412171
 H          4.3638560326        3.0630904403       -0.5393736013
 H          0.7640453037        1.3854695361       -0.1804981271
 H         -0.3107015734       -0.4497267560        2.4858901398
 H         -1.4973160220       -0.3298285397        4.6211765832
 H         -3.9399829505        0.0773045945        4.6642986633
 H         -5.1600576159        0.3661366247        2.5440238677
  73
  -119.033250965000       0.103135330052349      !
 C         -7.7594305129        2.6953864356        0.2498882205
 C         -6.5459810564        3.3486156654        0.4041419224
 C         -5.3492086119        2.6457638554        0.3554173569
 C         -5.3943264277        1.2843705019        0.1497948950
 C         -6.6190923294        0.6193893774       -0.0063639574
 C         -7.8094104268        1.3256465989        0.0437872004
 C         -6.3538878698       -0.7971680174       -0.2063658232
 C         -7.2102032129       -1.8675939217       -0.4039795509
 C         -6.6658932526       -3.1314629993       -0.5683970171
 C         -5.2935199413       -3.3252998674       -0.5376812674
 C         -4.4297808396       -2.2560322547       -0.3402196033
 C         -4.9681336413       -0.9998411924       -0.1754584187
 C         -4.2369585137        0.3148144406        0.0565668446
 C         -3.3452355507        0.5980052199       -1.1258463073
 C         -3.9073925060        1.0213075102       -2.3196915847
 C         -3.1354396554        1.1893046482       -3.4548530190
 C         -1.7807796821        0.9033346698       -3.4033782787
 C         -1.2021965723        0.4826678793       -2.2243629444
 C         -1.9684953782        0.3442327164       -1.0623891441
 N         -1.3826204791       -0.0429768425        0.1299082364
 C         -0.0291596127       -0.4768579284        0.1514322861
 C          0.2382507311       -1.8274562919        0.3491878390
 C          1.5430732963       -2.2811941730        0.3831997574
 C          2.6129533014       -1.4016049733        0.2141034854
 N          3.8793881800       -1.8123626088        0.2443800367
 C          4.8874316588       -0.9639132982        0.0853402437
 C          6.2387707529       -1.4132979770        0.1231369862
 C          6.5462890235       -2.7676693493        0.3367441320
 C          7.8592891795       -3.1617468139        0.3713502211
 C          8.8515933242       -2.1873317769        0.1907018169
 N          8.5901636694       -0.9228926694       -0.0109547154
 C          7.3214842262       -0.5133414704       -0.0495211969
 C          7.0459608859        0.8829432680       -0.2725942290
 N          8.0691992104        1.7221647142       -0.4394029407
 C          7.8330950318        2.9912207257       -0.6434400962
 C          6.5426193694        3.5370211154       -0.6996754990
 C          5.4723899660        2.6962985209       -0.5302809886
 C          5.6992268819        1.3273473642       -0.3087332823
 C          4.6132053520        0.4217904648       -0.1278809062
 N          3.3558841524        0.8445305864       -0.1606607506
 C          2.3349810669        0.0018358491        0.0046755632
 C          1.0106322057        0.4313643460       -0.0115557024
 C         -2.0757816183        0.0129023964        1.3260157244
 C         -1.3934285893       -0.1158213709        2.5403918902
 C         -2.0722317081       -0.0471918070        3.7385100061
 C         -3.4426862776        0.1587003898        3.7540936701
 C         -4.1233732835        0.2959967458        2.5579794457
 C         -3.4585074698        0.2297961239        1.3438146082
 H         -8.6778476312        3.2626004085        0.2905451572
 H         -6.5313171549        4.4164805312        0.5640954488
 H         -4.4037558288        3.1545263762        0.4749513571
 H         -8.7568512882        0.8214754875       -0.0761044397
 H         -8.2798420537       -1.7219283534       -0.4314649152
 H         -7.3188029307       -3.9776212197       -0.7244058199
 H         -4.8914136892       -4.3191876318       -0.6678332714
 H         -3.3606920242       -2.4089740131       -0.3187796823
 H         -4.9699286835        1.2099380061       -2.3586288977
 H         -3.5896466817        1.5244510335       -4.3741996333
 H         -1.1689125747        1.0081612391       -4.2865757833
 H         -0.1487649978        0.2554729830       -2.1997090934
 H         -0.5809512531       -2.5176663721        0.4815745562
 H          1.7620099460       -3.3257418846        0.5361349660
 H          5.7290937023       -3.4619260744        0.4695488313
 H          8.1321621821       -4.1927950792        0.5329198000
 H          9.8999267672       -2.4543655457        0.2101080127
 H          8.7058524123        3.6179608960       -0.7711561225
 H          6.4052602551        4.5927999524       -0.8733422553
 H          4.4508835582        3.0468752695       -0.5612248513
 H          0.8052735649        1.4814100251       -0.1478082520
 H         -0.3251103572       -0.2644595259        2.5360492903
 H         -1.5277129838       -0.1529022224        4.6646666575
 H         -3.9771323158        0.2091015120        4.6899880635
 H         -5.1918020044        0.4520229281        2.5606831659
  73
  -119.033233584700       0.101255828123719      !
 C         -5.1124293037        3.9459852817       -0.2180344390
 C         -3.7724484008        3.5972366841       -0.2882636059
 C         -3.3810878886        2.2665221612       -0.2251656659
 C         -4.3548830279        1.3029397826       -0.0910091064
 C         -5.7105708221        1.6481819544       -0.0217897411
 C         -6.0944930964        2.9773235471       -0.0848170742
 C         -6.4925312205        0.4285104232        0.1122916952
 C         -7.8590283431        0.2291306738        0.2170768303
 C         -8.3327610066       -1.0679867533        0.3355348770
 C         -7.4607061679       -2.1458876651        0.3498533659
 C         -6.0894872206       -1.9523118776        0.2446019290
 C         -5.6143318302       -0.6648688604        0.1255491744
 C         -4.1782105743       -0.2061733998       -0.0008694999
 C         -3.5257184826       -0.6975595059       -1.2678857818
 C         -4.2613099026       -0.7469234513       -2.4412590926
 C         -3.6691593810       -1.0886217891       -3.6435334883
 C         -2.3111201404       -1.3619437559       -3.6791159054
 C         -1.5625459964       -1.3212104367       -2.5217856468
 C         -2.1596634178       -1.0081964131       -1.2961306630
 N         -1.4134639718       -0.9986639208       -0.1321598281
 C         -0.0054051601       -1.1943871321       -0.1932412447
 C          0.5240399172       -2.4597388472       -0.4238241730
 C          1.8941117987       -2.6397266387       -0.4728511164
 C          2.7670498298       -1.5672908185       -0.2846594187
 N          4.0904905764       -1.7146510120       -0.3224463231
 C          4.9082109082       -0.6861940693       -0.1351438219
 C          6.3225181961       -0.8540011307       -0.1752332892
 C          6.8964387926       -2.1134094041       -0.4175998672
 C          8.2619419356       -2.2352013625       -0.4504172583
 C          9.0380479218       -1.0865512801       -0.2390116058
 N          8.5275075538        0.0944050778       -0.0103370638
 C          7.2024299965        0.2400453552        0.0275202169
 C          6.6526077622        1.5467895256        0.2833998612
 N          7.4864504907        2.5693466525        0.4784028855
 C          7.0001959365        3.7592550659        0.7141314578
 C          5.6263944310        4.0334665936        0.7757439517
 C          4.7468608524        3.0000379215        0.5773821231
 C          5.2441661177        1.7107839643        0.3223792846
 C          4.3624222611        0.6105550220        0.1135721176
 N          3.0459097458        0.7715059532        0.1518421020
 C          2.2151171776       -0.2544232289       -0.0363005083
 C          0.8316258262       -0.1023564999       -0.0013644133
 C         -2.0104288224       -0.8768945126        1.1094528589
 C         -1.2713022191       -1.1176373270        2.2725220050
 C         -1.8614819203       -1.0140475410        3.5143131998
 C         -3.2009431258       -0.6761285150        3.6251792960
 C         -3.9398251545       -0.4408717500        2.4798626882
 C         -3.3643064061       -0.5388830219        1.2229189453
 H         -5.3937005420        4.9875242475       -0.2693833358
 H         -3.0245129718        4.3688759007       -0.3951641972
 H         -2.3369792885        1.9959988432       -0.2828414660
 H         -7.1366503846        3.2547843768       -0.0315920582
 H         -8.5418909011        1.0654986675        0.2068286846
 H         -9.3954570791       -1.2423497878        0.4185468040
 H         -7.8523671154       -3.1477772744        0.4443678654
 H         -5.4103771437       -2.7924016289        0.2563555949
 H         -5.3129361835       -0.5042083956       -2.4085156835
 H         -4.2583865150       -1.1252921075       -4.5464881751
 H         -1.8305785713       -1.6083987267       -4.6138449290
 H         -0.5051967964       -1.5294566071       -2.5611937297
 H         -0.1412119172       -3.2986185216       -0.5612451408
 H          2.3171071509       -3.6154121060       -0.6511086850
 H          6.2360030513       -2.9542796751       -0.5729167864
 H          8.7366491066       -3.1861073076       -0.6345180878
 H         10.1187618672       -1.1367319221       -0.2585735440
 H          7.7292713386        4.5446380429        0.8640534602
 H          5.2797695802        5.0354246606        0.9749391193
 H          3.6757323802        3.1375256504        0.6104472208
 H          0.4205133091        0.8771034565        0.1848651516
 H         -0.2308728185       -1.3906685930        2.1940792877
 H         -1.2726620083       -1.2008519358        4.3996301114
 H         -3.6652100297       -0.5934073289        4.5955594033
 H         -4.9823987390       -0.1708395380        2.5572627735
  73
  -119.033138430000       9.155666345622328E-002 !
 C         -4.7633032640        3.9796020513       -0.0803527951
 C         -3.4522424039        3.5301088266       -0.1155768764
 C         -3.1668751801        2.1713091802       -0.0946100745
 C         -4.2159005772        1.2817099119       -0.0377382361
 C         -5.5426572942        1.7292735970       -0.0024973406
 C         -5.8209500524        3.0858581529       -0.0238669876
 C         -6.4209238345        0.5707521360        0.0522158508
 C         -7.8018545210        0.4762305682        0.0995018222
 C         -8.3791206121       -0.7830818309        0.1439930668
 C         -7.5944183500       -1.9264325622        0.1416172476
 C         -6.2092288893       -1.8378753663        0.0953266892
 C         -5.6310578249       -0.5881280987        0.0509921498
 C         -4.1607175996       -0.2396212577       -0.0034670808
 C         -3.4937243685       -0.7338475206       -1.2621451953
 C         -4.1934742545       -0.7438084736       -2.4578595324
 C         -3.5749805528       -1.0918826283       -3.6453623588
 C         -2.2273764094       -1.4147127643       -3.6427996496
 C         -1.5139296330       -1.4126779206       -2.4626718456
 C         -2.1381719202       -1.0886173596       -1.2541206488
 N         -1.4300180820       -1.1194072601       -0.0673519191
 C         -0.0176423716       -1.2963794459       -0.0955295321
 C          0.5398488211       -2.5601187918       -0.2577258927
 C          1.9142423644       -2.7125947055       -0.2881725584
 C          2.7627429083       -1.6121337313       -0.1583353862
 N          4.0896135696       -1.7296380391       -0.1895986453
 C          4.8824073864       -0.6715306221       -0.0734464999
 C          6.3005228858       -0.8050222883       -0.1137995084
 C          6.9064789283       -2.0629691706       -0.2704984855
 C          8.2746556598       -2.1510485332       -0.3066252115
 C          9.0214683669       -0.9703890530       -0.1845954980
 N          8.4808224708        0.2102962782       -0.0379787844
 C          7.1525544395        0.3237204153        0.0002055771
 C          6.5706035052        1.6316786267        0.1614184029
 N          7.3780696501        2.6887928045        0.2600527278
 C          6.8615977092        3.8803012734        0.4067783163
 C          5.4815822955        4.1212757285        0.4703925092
 C          4.6288912900        3.0519141879        0.3701551911
 C          5.1589725589        1.7605954861        0.2089582344
 C          4.3056634721        0.6250082991        0.0934676662
 N          2.9858782907        0.7548929939        0.1352880037
 C          2.1804675213       -0.3004804838        0.0150446173
 C          0.7938136129       -0.1783885217        0.0440006478
 C         -2.0690494728       -1.0421948831        1.1558767221
 C         -1.3784470191       -1.3529345276        2.3314670828
 C         -2.0160120746       -1.3029100278        3.5531850575
 C         -3.3535591783       -0.9478659105        3.6286862286
 C         -4.0417856287       -0.6329726751        2.4705019016
 C         -3.4183075245       -0.6754620679        1.2340283411
 H         -4.9617724464        5.0411559049       -0.0980228624
 H         -2.6436727983        4.2446016750       -0.1599147605
 H         -2.1449788535        1.8234618548       -0.1243441780
 H         -6.8401390380        3.4413352898        0.0019254931
 H         -8.4167315289        1.3638840024        0.1012056936
 H         -9.4545958508       -0.8759849335        0.1808934261
 H         -8.0659770330       -2.8973065522        0.1761033615
 H         -5.5981653591       -2.7288421912        0.0937794626
 H         -5.2365927028       -0.4648736127       -2.4557668298
 H         -4.1364279720       -1.0965917723       -4.5666520163
 H         -1.7276423953       -1.6695096610       -4.5651511774
 H         -0.4649713375       -1.6631944651       -2.4692920808
 H         -0.1063540183       -3.4189982370       -0.3570330260
 H          2.3589560476       -3.6870400778       -0.4125957082
 H          6.2680968746       -2.9301607599       -0.3592206335
 H          8.7732263179       -3.1002327567       -0.4252121339
 H         10.1031440697       -0.9935776042       -0.2072812092
 H          7.5699999914        4.6950183274        0.4788906732
 H          5.1097027586        5.1263089397        0.5938289648
 H          3.5548978466        3.1621444953        0.4101062431
 H          0.3617756736        0.8010839752        0.1744341764
 H         -0.3393801159       -1.6377411957        2.2766982503
 H         -1.4671768241       -1.5476318848        4.4499532596
 H         -3.8548911657       -0.9081844887        4.5830250095
 H         -5.0798721367       -0.3408014748        2.5233738847
  73
  -119.033095828500       8.752087758012748E-002 !
 C         -7.8800039223        2.5450974776        0.1980237793
 C         -6.7030920833        3.2604862661        0.3592835217
 C         -5.4714023010        2.6197818364        0.3256448144
 C         -5.4442228404        1.2566975205        0.1269220527
 C         -6.6320094332        0.5294297895       -0.0375847574
 C         -7.8574986629        1.1737808801       -0.0019840858
 C         -6.2932555081       -0.8721281425       -0.2314150702
 C         -7.0919363004       -1.9840197868       -0.4412731368
 C         -6.4823832438       -3.2178211391       -0.6045675092
 C         -5.1021466904       -3.3414513992       -0.5613555500
 C         -4.2962120300       -2.2305951866       -0.3503011698
 C         -4.8995790592       -1.0043175055       -0.1850279577
 C         -4.2390683689        0.3461910103        0.0560026272
 C         -3.3371712783        0.6619006947       -1.1101562250
 C         -3.8871866742        1.0900666950       -2.3075961331
 C         -3.1010317202        1.2744616452       -3.4307587098
 C         -1.7449854611        0.9989951997       -3.3633679922
 C         -1.1782599405        0.5740730187       -2.1797951898
 C         -1.9586985627        0.4205597680       -1.0296227059
 N         -1.3872458438        0.0306900707        0.1693235435
 C         -0.0390923452       -0.4174037522        0.2049491189
 C          0.2106999951       -1.7701500176        0.4105977543
 C          1.5090876210       -2.2425568222        0.4404455052
 C          2.5906071694       -1.3801058998        0.2589678543
 N          3.8507009957       -1.8106665711        0.2674910208
 C          4.8698117314       -0.9785505213        0.0940715810
 C          6.2135391275       -1.4516778101        0.0897606448
 C          6.5029996296       -2.8149454439        0.2691003776
 C          7.8091644168       -3.2327169415        0.2557800046
 C          8.8131422926       -2.2728591194        0.0628451179
 N          8.5686186569       -1.0001979220       -0.1058781398
 C          7.3070988544       -0.5677517328       -0.0982557826
 C          7.0510003018        0.8371238391       -0.2879237290
 N          8.0846519045        1.6616916608       -0.4641944515
 C          7.8658038696        2.9381551368       -0.6390668367
 C          6.5841081061        3.5071337352       -0.6525847019
 C          5.5036351723        2.6817038092       -0.4732112374
 C          5.7118598752        1.3049493592       -0.2839348011
 C          4.6146719967        0.4142183957       -0.0976901911
 N          3.3639245631        0.8564575781       -0.1103747768
 C          2.3314987407        0.0281174001        0.0554721989
 C          1.0134790287        0.4762749865        0.0420876412
 C         -2.0936929484        0.0961867243        1.3572237133
 C         -1.4225792946       -0.0077407835        2.5798460066
 C         -2.1142430578        0.0770008532        3.7697223807
 C         -3.4859755600        0.2742313132        3.7674102411
 C         -4.1562533226        0.3836232486        2.5622980300
 C         -3.4786439313        0.3002384545        1.3564858391
 H         -8.8265646134        3.0644557501        0.2281069990
 H         -6.7448451145        4.3284966822        0.5135243262
 H         -4.5546791311        3.1769496345        0.4529023602
 H         -8.7764378803        0.6207301144       -0.1270515194
 H         -8.1672349867       -1.8929592236       -0.4783799277
 H         -7.0895717332       -4.0956876421       -0.7697382423
 H         -4.6484231933       -4.3124844013       -0.6943065357
 H         -3.2210042913       -2.3289394946       -0.3214365356
 H         -4.9505824368        1.2698362655       -2.3593920161
 H         -3.5461255408        1.6114741247       -4.3539459381
 H         -1.1224222814        1.1142337173       -4.2377866964
 H         -0.1232532233        0.3557593719       -2.1433681965
 H         -0.6171849129       -2.4488231517        0.5489564627
 H          1.7129077245       -3.2899350826        0.5949007416
 H          5.6781666586       -3.4976705094        0.4141962355
 H          8.0678694865       -4.2712412101        0.3907244972
 H          9.8567371643       -2.5581146332        0.0469509170
 H          8.7460291402        3.5523359827       -0.7765484054
 H          6.4613338352        4.5685148712       -0.8013406914
 H          4.4879170486        3.0500743079       -0.4725740952
 H          0.8230033043        1.5294642922       -0.0915972828
 H         -0.3531678007       -0.1489855038        2.5878789882
 H         -1.5786246317       -0.0070189855        4.7032164190
 H         -4.0300173946        0.3398884833        4.6967628239
 H         -5.2258659852        0.5303944059        2.5524535572
  73
  -119.032535856000       4.839116980081901E-002 !
 C         -4.5769692764        3.9605886115        0.2230045951
 C         -3.2890775977        3.4535118188        0.1455398730
 C         -3.0682714620        2.0850536992        0.0632119461
 C         -4.1575200070        1.2432494411        0.0591714091
 C         -5.4611421887        1.7495166253        0.1379566985
 C         -5.6751810131        3.1153727016        0.2203666389
 C         -6.3939485977        0.6338921340        0.1076849158
 C         -7.7773873798        0.6034326295        0.1671528335
 C         -8.4165142386       -0.6252024644        0.1158375625
 C         -7.6897188341       -1.8010844827        0.0046832642
 C         -6.3023346365       -1.7768448861       -0.0518288676
 C         -5.6618836795       -0.5576334185        0.0024564056
 C         -4.1771331522       -0.2782369977       -0.0219858380
 C         -3.5082605635       -0.7126535192       -1.3011370445
 C         -4.2047162486       -0.7094428189       -2.4981167176
 C         -3.5724281727       -1.0098391710       -3.6920584339
 C         -2.2174505852       -1.2999197004       -3.6940640234
 C         -1.5070919357       -1.3114417102       -2.5118098445
 C         -2.1434757012       -1.0308458280       -1.2994976407
 N         -1.4396835200       -1.0840691785       -0.1106863918
 C         -0.0259579960       -1.2562922421       -0.1416851793
 C          0.5307341430       -2.5310699192       -0.1637863099
 C          1.9042189236       -2.6884300774       -0.1595850208
 C          2.7537605717       -1.5813572662       -0.1295379591
 N          4.0795039329       -1.7052743176       -0.0888011797
 C          4.8740423953       -0.6432149103       -0.0400095489
 C          6.2886062705       -0.7861686208        0.0527452813
 C          6.8886236653       -2.0562544975        0.0912344278
 C          8.2515439107       -2.1532662512        0.2088418811
 C          8.9989979614       -0.9692769396        0.2877211548
 N          8.4647250217        0.2225297455        0.2432858006
 C          7.1419617390        0.3447292243        0.1254031879
 C          6.5668735150        1.6644329145        0.0717182980
 N          7.3778397318        2.7222572966        0.1195388831
 C          6.8692941394        3.9249749704        0.0669619187
 C          5.4942207076        4.1772818145       -0.0420027062
 C          4.6375579192        3.1072010054       -0.0882776585
 C          5.1587786262        1.8035897861       -0.0295232744
 C          4.3011748126        0.6654887396       -0.0653846618
 N          2.9821761505        0.8027691722       -0.1129514292
 C          2.1737055549       -0.2575382993       -0.1291355556
 C          0.7864639251       -0.1307581269       -0.1341907919
 C         -2.0976654926       -1.1425862703        1.1045245102
 C         -1.4162414572       -1.5237172840        2.2639528352
 C         -2.0835256094       -1.6274132986        3.4666774550
 C         -3.4396805235       -1.3533390135        3.5390054132
 C         -4.1151598719       -0.9474001777        2.4013728580
 C         -3.4621181434       -0.8331540149        1.1854129621
 H         -4.7250909842        5.0286383986        0.2859317834
 H         -2.4473611865        4.1302233441        0.1486499306
 H         -2.0636427826        1.6946330704        0.0026256356
 H         -6.6763664774        3.5151106910        0.2820637099
 H         -8.3466433552        1.5169079126        0.2533000615
 H         -9.4947248412       -0.6684692203        0.1628040845
 H         -8.2088935597       -2.7471204888       -0.0363258686
 H         -5.7368212012       -2.6935819945       -0.1352173758
 H         -5.2553020449       -0.4605039025       -2.4925882729
 H         -4.1310409879       -1.0060969145       -4.6151069962
 H         -1.7108378814       -1.5225649249       -4.6209836219
 H         -0.4535296406       -1.5433807882       -2.5172159812
 H         -0.1176567187       -3.3940566261       -0.1768072524
 H          2.3479449975       -3.6711476518       -0.1691706054
 H          6.2494745165       -2.9253141796        0.0305032794
 H          8.7453468644       -3.1117059632        0.2437305690
 H         10.0757150469       -0.9992868019        0.3904866803
 H          7.5806153201        4.7392413570        0.1099344043
 H          5.1290164218        5.1913305338       -0.0875644204
 H          3.5668727147        3.2266616076       -0.1696595546
 H          0.3577100198        0.8586928553       -0.1240194055
 H         -0.3612683346       -1.7425933975        2.2138542256
 H         -1.5417375466       -1.9274186653        4.3508997455
 H         -3.9656941309       -1.4414048813        4.4769080377
 H         -5.1660422836       -0.7067585814        2.4577417829
