  124
       -170.87564139
 C          6.2886768924        3.0901036873       -2.9379693347
 C          6.5899145428        1.5981172108       -3.1402807094
 C          8.0248210790        1.3361043627       -2.6742029663
 C          6.5039652915        1.2450950344       -4.6319598829
 C          5.5647020500        0.7823144815       -2.3673262469
 C          4.2107444083        0.9016636252       -2.7070411069
 C          3.2082858022        0.2177866543       -2.0482067405
 C          3.5700786767       -0.6049286541       -0.9910594057
 C          4.9309567177       -0.7715916126       -0.6534119581
 C          5.9175968887       -0.0796776476       -1.3379563624
 C          4.9662272112       -1.7235240732        0.4255177780
 C          5.9994085861       -2.2755654216        1.1675679208
 C          5.7121115047       -3.1724715597        2.1865049087
 C          6.7942538631       -3.8224517019        3.0355682345
 C          6.6027267884       -3.4030930636        4.4998359621
 C          6.6830649805       -5.3487666449        2.9133174969
 C          8.2056900003       -3.4149959483        2.6040030079
 C          4.3708149989       -3.4780910130        2.4502172478
 C          3.3235016355       -2.9448965214        1.7257236403
 C          3.6250846662       -2.0750894332        0.6894799595
 N          2.7916867057       -1.4037669162       -0.1844605638
 C          1.3984031727       -1.4032546375       -0.1453602877
 C          0.6836098287       -2.6085039500       -0.0883732450
 C         -0.6831439875       -2.6095124654        0.0428190371
 C         -1.3985820159       -1.4052949875        0.1088279240
 N         -2.7914240646       -1.4055760071        0.1609080651
 C         -3.6367275425       -2.0693033245       -0.7072767732
 C         -3.3498629924       -2.9394912333       -1.7473248450
 C         -4.4068865881       -3.4646782620       -2.4635245648
 C         -5.7436388917       -3.1486185937       -2.1894502619
 C         -6.8371353903       -3.7912394027       -3.0296777255
 C         -6.7584013998       -5.3166121532       -2.8732087377
 C         -6.6341538795       -3.4082188224       -4.5025317186
 C         -8.2405719887       -3.3432765324       -2.6123955952
 C         -6.0163789467       -2.2538127667       -1.1646218448
 C         -4.9734552682       -1.7115787698       -0.4289934751
 C         -4.9230525425       -0.7656674371        0.6548421150
 C         -5.8988803711       -0.0733966801        1.3545251059
 C         -5.5305977751        0.7808746029        2.3850728013
 C         -6.5426623175        1.5996762846        3.1720200331
 C         -6.2526880574        3.0900694874        2.9431482441
 C         -6.4219363301        1.2674590951        4.6661180968
 C         -7.9862746647        1.3236145542        2.7425070635
 C         -4.1724068327        0.8933796676        2.7097075183
 C         -3.1806541176        0.2077961040        2.0367945978
 C         -3.5580673949       -0.6074478292        0.9793608440
 C         -0.7179962471       -0.1753271447        0.0348434733
 N         -1.3545141742        0.9912324758       -0.0065488583
 C         -0.7045656692        2.1520623134       -0.0709531651
 C         -1.5041689684        3.3543446037       -0.2879509854
 C         -1.0453152881        4.4019365367       -1.0880696390
 C         -1.8315400054        5.5184831026       -1.2907273866
 C         -3.0868747994        5.6067226985       -0.7090365885
 C         -3.5600382700        4.5585830911        0.0636414254
 C         -2.7813241528        3.4367411187        0.2691077835
 C          0.7004081320        2.1520377056        0.0514129039
 C          1.4997070090        3.3526187408        0.2801854947
 C          1.0428062572        4.3896602854        1.0948595945
 C          1.8300411633        5.5030994787        1.3104745367
 C          3.0839384402        5.5986288608        0.7268411748
 C          3.5546593268        4.5610171961       -0.0613576096
 C          2.7751348771        3.4421229141       -0.2794495770
 N          1.3517896627        0.9926893505       -0.0209920806
 C          0.7164922121       -0.1744390123       -0.0689765035
 H          5.2929697618        3.3461943533       -3.2895181436
 H          6.3530659070        3.3417568040       -1.8812498561
 H          7.0098950467        3.6965290252       -3.4822423898
 H          8.2980487418        0.2930656862       -2.8165379026
 H          8.1507489227        1.5991673287       -1.6265421586
 H          8.7121863665        1.9456154896       -3.2576367477
 H          7.2537116127        1.8004669962       -5.1917899609
 H          6.6827451158        0.1815489607       -4.7766063726
 H          5.5277719301        1.4852160784       -5.0433990810
 H          3.9251919225        1.5525159343       -3.5197801485
 H          2.1794313926        0.3221317923       -2.3545307196
 H          6.9462170206       -0.2287661214       -1.0549327376
 H          7.0119515010       -1.9897669908        0.9364511043
 H          5.6372411823       -3.7236349865        4.8809312959
 H          7.3786449698       -3.8453610351        5.1212392660
 H          6.6617746070       -2.3206237316        4.5907624098
 H          6.7915155281       -5.6502088368        1.8734554711
 H          7.4666464579       -5.8290399619        3.4957356783
 H          5.7236262423       -5.7087127092        3.2739117811
 H          8.3546309383       -2.3432592420        2.7125655049
 H          8.9366656352       -3.9198251251        3.2325200064
 H          8.3960030413       -3.7002291870        1.5718659695
 H          4.1310306762       -4.1556198299        3.2554262197
 H          2.3022395643       -3.1913120742        1.9735674690
 H          1.2274638591       -3.5374983816       -0.1613322860
 H         -1.2260059059       -3.5394466809        0.1110565875
 H         -2.3324724705       -3.1926181422       -2.0040687817
 H         -4.1786754431       -4.1444421069       -3.2702042740
 H         -7.5434819115       -5.7945458944       -3.4555137891
 H         -5.8010845961       -5.7015970477       -3.2130019634
 H         -6.8855446075       -5.5937648153       -1.8287249330
 H         -5.6806441958       -3.7673120345       -4.8792422000
 H         -6.6591954284       -2.3263905256       -4.6156947819
 H         -7.4247772767       -3.8383460751       -5.1139284663
 H         -8.3602295015       -2.2691567383       -2.7332965755
 H         -8.4461913068       -3.6123841493       -1.5789164838
 H         -8.9799296602       -3.8359550966       -3.2408179604
 H         -7.0250762742       -1.9623788003       -0.9239030789
 H         -6.9313517246       -0.2159704966        1.0822858942
 H         -5.2471534087        3.3520101122        3.2611016091
 H         -6.9588186495        3.7011004213        3.5018283792
 H         -6.3496385208        3.3289699704        1.8859472731
 H         -5.4426558259        1.5291817687        5.0563023350
 H         -6.5805438318        0.2032216878        4.8280488922
 H         -7.1698213412        1.8180704879        5.2331035594
 H         -8.2462089574        0.2786776138        2.8958921587
 H         -8.1408752859        1.5810535482        1.6972871317
 H         -8.6642413506        1.9298502163        3.3401995164
 H         -3.8746195253        1.5398467645        3.5214467214
 H         -2.1481639653        0.3051404306        2.3329042575
 H         -0.0757417643        4.3329257975       -1.5589882512
 H         -1.4658398299        6.3240473000       -1.9108490076
 H         -3.6961678497        6.4847022855       -0.8656847922
 H         -4.5423319922        4.6168330443        0.5095306458
 H         -3.1469218070        2.6147973982        0.8656372768
 H          0.0742044675        4.3146806809        1.5669164506
 H          1.4663937908        6.3003275974        1.9424706715
 H          3.6940338987        6.4741073917        0.8939731544
 H          4.5355645887        4.6250550816       -0.5095089807
 H          3.1388557930        2.6280189672       -0.8877620751
