  47
  -71.0378306616000       0.408545242315543      !
 C         -1.1102440313       -2.6581957170        1.2137790125
 C         -0.5187100502       -1.9185487871       -0.0169723286
 C         -0.9958665557       -2.5255917023       -1.3611727646
 C          0.9741105614       -2.1487392810        0.0072310456
 C          1.4636249521       -3.4461238627        0.0485318643
 C          2.8202672279       -3.7136820884        0.0651038672
 C          3.7263017744       -2.6584891420        0.0472368439
 C          3.2721328288       -1.3627522473        0.0135682223
 C          1.8929491715       -1.0868737313       -0.0131499806
 N          1.4447338450        0.2094099566       -0.0413756800
 C          2.4161525160        1.2532081649       -0.0055541110
 C          3.0110793967        1.6903676473       -1.1818397197
 C          3.9583817563        2.6986592712       -1.1349614315
 C          4.3100674246        3.2675837452        0.0777156311
 C          3.7147327150        2.8288391221        1.2494509690
 C          2.7673149188        1.8210595923        1.2119237754
 C          0.1180832321        0.5599216781       -0.0586575611
 C         -0.2272753955        1.9008812747       -0.1209900422
 C         -1.5522234147        2.2898008822       -0.1152949985
 C         -2.5936936383        1.3334702128       -0.0430994514
 C         -3.9207106700        1.7528805627       -0.0295327363
 C         -4.9540024651        0.8034862424        0.0284231906
 F         -6.2373238082        1.2473528498        0.0434538530
 C         -4.6923438424       -0.5359779363        0.0662526964
 C         -3.3570130354       -0.9686047867        0.0535735930
 C         -2.2693900204       -0.0630753070        0.0040904781
 C         -0.9123886912       -0.4631133719       -0.0066760071
 H         -1.8501602498       -2.0465142501        1.7185109961
 H         -0.3199858279       -2.8734993546        1.9299981151
 H         -1.5704893073       -3.5994458504        0.9252759618
 H         -2.0385019819       -2.2963601190       -1.5508959601
 H         -0.4057887952       -2.1010589088       -2.1720362850
 H         -0.8588989676       -3.6033631181       -1.3679425162
 H          0.7686347101       -4.2709190740        0.0772151089
 H          3.1710742003       -4.7331924149        0.0959814224
 H          4.7875736515       -2.8538728167        0.0638845840
 H          3.9782353041       -0.5472592707        0.0082194402
 H          2.7268871687        1.2392465881       -2.1209601935
 H          4.4205213244        3.0397443645       -2.0488496797
 H          5.0480717946        4.0543992364        0.1102464282
 H          3.9871366024        3.2709054046        2.1956839079
 H          2.2925435335        1.4710877782        2.1165241601
 H          0.5408101489        2.6555347435       -0.1752901395
 H         -1.8079031797        3.3359291128       -0.1666492591
 H         -4.1642686302        2.8018813635       -0.0660269415
 H         -5.4961163780       -1.2533537890        0.1076465271
 H         -3.2004749685       -2.0288419705        0.0875393004
  47
  -71.0377142218000       0.361183689742265      !
 C         -1.1661000803       -2.6934510599        1.1499672139
 C         -0.5183585023       -1.9156844730       -0.0270918763
 C         -0.9290060236       -2.4824954170       -1.4108642760
 C          0.9726530597       -2.1450269767        0.0498357956
 C          1.4627706479       -3.4417363981        0.1001227089
 C          2.8196277155       -3.7076560168        0.1306725378
 C          3.7250090486       -2.6521452938        0.1034190744
 C          3.2701819910       -1.3569606426        0.0570708772
 C          1.8906397139       -1.0822646741        0.0361552599
 N          1.4411948574        0.2134548660        0.0102195589
 C          2.4152487987        1.2556248383       -0.0063649311
 C          2.8543902249        1.7692086879       -1.2189677647
 C          3.8109335009        2.7697133062       -1.2318594662
 C          4.3265763947        3.2546197003       -0.0411935386
 C          3.8852486406        2.7408908701        1.1671679395
 C          2.9290777879        1.7405696744        1.1893803001
 C          0.1144205534        0.5635376009        0.0238614186
 C         -0.2320231134        1.9052359985        0.0514310420
 C         -1.5578544371        2.2921364175        0.0570883968
 C         -2.5985736609        1.3331011077        0.0222869099
 C         -3.9266320595        1.7498422617        0.0138125348
 C         -4.9585642957        0.7980347709       -0.0260388701
 F         -6.2428161485        1.2394934730       -0.0318626225
 C         -4.6948899986       -0.5411211597       -0.0592304283
 C         -3.3585923282       -0.9712071320       -0.0493996955
 C         -2.2726663433       -0.0636099600       -0.0058500678
 C         -0.9150959950       -0.4616240958        0.0128368445
 H         -1.9254498960       -2.0946864914        1.6414967612
 H         -0.4092682550       -2.9365142126        1.8928352080
 H         -1.6179157200       -3.6217389594        0.8101804445
 H         -1.9631843981       -2.2538556663       -1.6422614084
 H         -0.3053282659       -2.0299712344       -2.1801965351
 H         -0.7829583913       -3.5586851760       -1.4436771164
 H          0.7682220568       -4.2672070122        0.1209118015
 H          3.1711354737       -4.7265238579        0.1724659670
 H          4.7864169760       -2.8467288502        0.1202841591
 H          3.9758084276       -0.5413193867        0.0372484028
 H          2.4431471987        1.3830118032       -2.1397350334
 H          4.1526153034        3.1698130480       -2.1742877803
 H          5.0726323542        4.0344489479       -0.0549707573
 H          4.2848439436        3.1182410307        2.0961431756
 H          2.5748972916        1.3314396078        2.1238381935
 H          0.5356555824        2.6620632983        0.0699610941
 H         -1.8144366823        3.3389541083        0.0823554696
 H         -4.1719365187        2.7988694042        0.0377909791
 H         -5.4974433566       -1.2603059750       -0.0907703253
 H         -3.2002708948       -2.0314259177       -0.0726297708
  47
  -71.0367646877000       0.132236842784295      !
 C         -1.0522160175       -2.5730788588        1.2953866320
 C         -0.5191863859       -1.9177992014       -0.0042675884
 C         -1.0370684882       -2.6068953228       -1.2943924314
 C          0.9739049398       -2.1494215157        0.0176241821
 C          1.4666463872       -3.4460292352        0.0099219946
 C          2.8239675389       -3.7108115545        0.0303977362
 C          3.7279164462       -2.6540534613        0.0543792858
 C          3.2710499833       -1.3589183986        0.0555371649
 C          1.8911343166       -1.0855950010        0.0395602878
 N          1.4414638051        0.2102964818        0.0371478368
 C          2.4147131336        1.2531644585        0.0189251997
 C          2.8462720097        1.7682488874       -1.1960849456
 C          3.7981847270        2.7726924983       -1.2145049177
 C          4.3172448810        3.2607188441       -0.0263626537
 C          3.8846318668        2.7448519396        1.1841378599
 C          2.9330024478        1.7400578648        1.2117259333
 C          0.1147928185        0.5611677156        0.0307225087
 C         -0.2306390892        1.9031515759        0.0574382605
 C         -1.5558748304        2.2909958355        0.0462119505
 C         -2.5969444806        1.3328972081        0.0009227041
 C         -3.9241343755        1.7527218074       -0.0107960751
 C         -4.9579512029        0.8036987468       -0.0546162031
 F         -6.2412964912        1.2475462664       -0.0657872301
 C         -4.6968735815       -0.5359858262       -0.0862446799
 C         -3.3614922217       -0.9694300307       -0.0738187726
 C         -2.2726252958       -0.0643519770       -0.0283256109
 C         -0.9147256282       -0.4631852647       -0.0069988134
 H         -0.4106033942       -2.2829111096        2.1259870335
 H         -1.0391826895       -3.6565911076        1.2182426170
 H         -2.0594814301       -2.2465833850        1.5258980039
 H         -0.2724795029       -2.5425785708       -2.0668800815
 H         -1.2538648506       -3.6568490754       -1.1177852962
 H         -1.9288480216       -2.1227225437       -1.6753516592
 H          0.7761279935       -4.2739137833       -0.0172613025
 H          3.1765412919       -4.7301581683        0.0256036424
 H          4.7895157909       -2.8478664978        0.0697655949
 H          3.9752855090       -0.5418632893        0.0691591077
 H          2.4316132356        1.3797698170       -2.1144859381
 H          4.1337513129        3.1729908777       -2.1590810447
 H          5.0598694927        4.0436808858       -0.0440276985
 H          4.2878864348        3.1239505093        2.1109546376
 H          2.5861604896        1.3302040548        2.1486722901
 H          0.5370666269        2.6594579907        0.0899890361
 H         -1.8118150394        3.3379967826        0.0713967272
 H         -4.1669545686        2.8022753121        0.0145831320
 H         -5.5007476937       -1.2534966268       -0.1210875662
 H         -3.2091372161       -2.0308975671       -0.1035152943
  47
  -71.0364818684000       9.803422515789723E-002 !
 C         -1.2949385512       -2.8175519839        0.9067189507
 C         -0.4977644375       -1.9248247007       -0.0770070852
 C         -0.7123723065       -2.3372159415       -1.5576667426
 C          0.9764169317       -2.1704998371        0.1494720137
 C          1.4526297905       -3.4723325143        0.2095980810
 C          2.8048115759       -3.7501569243        0.2883706954
 C          3.7205790324       -2.7042204987        0.2711971555
 C          3.2793197982       -1.4041182299        0.2112394444
 C          1.9045978362       -1.1156805197        0.1814509296
 N          1.4569597972        0.1831020814        0.1776541955
 C          2.3899467451        1.2423304257        0.0032677040
 C          2.4286734776        1.9022842337       -1.2196209454
 C          3.3269220352        2.9337302500       -1.4172899020
 C          4.1869761836        3.3123304284       -0.3970578523
 C          4.1440450244        2.6580499419        0.8227339065
 C          3.2482161230        1.6235995713        1.0295613916
 C          0.1295012346        0.5224330662        0.2733073043
 C         -0.2133301343        1.8383409354        0.5427167515
 C         -1.5361758150        2.2310115730        0.5539512487
 C         -2.5694283881        1.3176391457        0.2269537499
 C         -3.8883803310        1.7559109438        0.1635532258
 C         -4.9114831406        0.8509360179       -0.1603948593
 F         -6.1868311934        1.3132232280       -0.2184843449
 C         -4.6488953982       -0.4656737770       -0.4125698689
 C         -3.3232424491       -0.9186402768       -0.3452226478
 C         -2.2463547282       -0.0573565471       -0.0245414269
 C         -0.9006554572       -0.4809615019        0.0759639476
 H         -0.6687704015       -3.0763586073        1.7578774612
 H         -1.6230540274       -3.7373264481        0.4294321150
 H         -2.1650407672       -2.2955762333        1.2893316918
 H         -0.0052079989       -1.7969973165       -2.1852810986
 H         -0.5347098366       -3.4019908214       -1.6845557696
 H         -1.7124984119       -2.0963623281       -1.8991273339
 H          0.7519121897       -4.2922685102        0.1874893219
 H          3.1454222921       -4.7722443590        0.3426412468
 H          4.7797422649       -2.9090119601        0.3023354367
 H          3.9947261950       -0.5975667882        0.1872461817
 H          1.7498327971        1.6006475618       -2.0037714881
 H          3.3563712589        3.4413426648       -2.3693115486
 H          4.8867560800        4.1187658193       -0.5533826578
 H          4.8074608743        2.9558637854        1.6206315043
 H          3.1992070269        1.1158720012        1.9816310978
 H          0.5574744324        2.5642392624        0.7483707977
 H         -1.7965468569        3.2512123822        0.7856744271
 H         -4.1337024070        2.7859942782        0.3635695065
 H         -5.4458975907       -1.1482403336       -0.6601383751
 H         -3.1632249287       -1.9594070458       -0.5504222059
