  47
        -71.32764344
 C         -1.1626442013       -2.7025776954        1.1319120388
 C         -0.5211104076       -1.9146731435       -0.0417995637
 C         -0.9410393002       -2.4679791853       -1.4282497923
 C          0.9700345396       -2.1466592347        0.0237788522
 C          1.4586952803       -3.4444170601        0.0589165045
 C          2.8153532389       -3.7123706928        0.0786058814
 C          3.7219787466       -2.6578264815        0.0556343466
 C          3.2686300248       -1.3616759871        0.0242031440
 C          1.8893585278       -1.0850071103        0.0143693990
 N          1.4415183300        0.2114802829        0.0033212005
 C          2.4168627088        1.2524954383       -0.0095304956
 C          2.8492236954        1.7768321808       -1.2199660175
 C          3.8070240498        2.7761720042       -1.2294065962
 C          4.3306460650        3.2492477112       -0.0374642668
 C          3.8960724783        2.7248085138        1.1687423014
 C          2.9387021872        1.7255644152        1.1875023711
 C          0.1153287048        0.5631407860        0.0284218743
 C         -0.2291205594        1.9049707676        0.0706698737
 C         -1.5543665131        2.2935207943        0.0881248998
 C         -2.5965786659        1.3362038483        0.0507823616
 C         -3.9240982487        1.7547283878        0.0543992408
 C         -4.9575448950        0.8046747887        0.0120204463
 F         -6.2412089923        1.2478341501        0.0182485289
 C         -4.6958945318       -0.5344528748       -0.0353146269
 C         -3.3601455678       -0.9663450153       -0.0377508238
 C         -2.2727433678       -0.0606044021        0.0075795026
 C         -0.9156241593       -0.4605365915        0.0141674738
 H         -1.9181407515       -2.1074537318        1.6336937418
 H         -0.4015819559       -2.9535621994        1.8677911064
 H         -1.6178009970       -3.6270589742        0.7862568611
 H         -1.9763123557       -2.2358431385       -1.6511135067
 H         -0.3214986027       -2.0090861148       -2.1971520489
 H         -0.7966546642       -3.5440033728       -1.4720221059
 H          0.7631701727       -4.2691444240        0.0762735348
 H          3.1657310203       -4.7320400682        0.1087031846
 H          4.7832058106       -2.8539359549        0.0641298081
 H          3.9752253935       -0.5468009564        0.0076524279
 H          2.4317953080        1.3998009133       -2.1417480895
 H          4.1434374045        3.1846282961       -2.1701440182
 H          5.0776588629        4.0282033271       -0.0485543569
 H          4.3018919352        3.0929317648        2.0987210000
 H          2.5897290691        1.3081689873        2.1202625812
 H          0.5396823382        2.6605951385        0.0915365768
 H         -1.8093698266        3.3403882040        0.1247594170
 H         -4.1678289427        2.8038025784        0.0896962733
 H         -5.4996005181       -1.2522694793       -0.0686232739
 H         -3.2034067242       -2.0265045219       -0.0718674127
