  83
       -111.61326300
 C         -5.5125936154        3.0713385180       -3.0009658773
 C         -5.6259001046        2.1357717032       -1.8038214575
 C         -5.3506073504        0.6875100852       -2.2022633062
 C         -5.4656718553       -0.2962497776       -1.0232416835
 C         -5.1783490095       -1.7252041644       -1.5180378000
 C         -5.2597101721       -2.7705137633       -0.4078186198
 C         -4.9583066935       -4.1665497479       -0.9382995123
 C         -6.8184271983       -0.1988657664       -0.3583204963
 C         -8.0643512398       -0.4470144689       -0.8925148485
 C         -9.1830994293       -0.2880948838       -0.0850450275
 C         -9.0542747739        0.1144489292        1.2352781544
 C         -7.8057525354        0.3662842301        1.7805985110
 C         -6.6877546065        0.2072563630        0.9785604339
 C         -5.2764264777        0.3860978740        1.2691363594
 C         -4.6291733162        0.7639715301        2.4357757896
 C         -3.2493811946        0.8338048780        2.4412719893
 C         -2.5137594011        0.5296245729        1.2914184545
 C         -1.1061874479        0.5729506851        1.3190877434
 C          0.1023700629        0.5862518369        1.3372517472
 C          1.5105861817        0.5758630968        1.3396957325
 C          2.2181104626        0.9763077584        2.4785407019
 C          3.5987926773        0.9549891222        2.4965490622
 C          4.2765990132        0.5276459237        1.3638228689
 C          3.5711948205        0.1267202230        0.2164108349
 C          2.1980658824        0.1487717747        0.1954894459
 C          4.5226658248       -0.2961443320       -0.8773713193
 C          4.3732310235        0.5911872887       -2.1268579824
 C          4.5629513121        2.0780392531       -1.8340125238
 C          4.3946392812        2.9158418356       -3.0953408919
 C          4.3109069966       -1.7710572903       -1.2657439686
 C          4.4364010992       -2.7284084974       -0.0823391546
 C          4.2082501864       -4.1719740730       -0.5125599305
 C          5.8612820180       -0.0882892246       -0.2108426514
 C          7.1175015678       -0.3089679996       -0.7219020028
 C          8.2255895303       -0.0416791621        0.0917847595
 C          9.5253569903       -0.2619604380       -0.4134632726
 N         10.5789944268       -0.4411031776       -0.8305145010
 C          8.0616311901        0.4390313147        1.3935742500
 C          6.7959317837        0.6592140670        1.9025270992
 C          5.6957883398        0.3951669792        1.0994106792
 C         -3.1708293683        0.1595800240        0.1100215861
 C         -4.5426188697        0.0900210861        0.1082789482
 H         -4.5127632514        3.0271457743       -3.4279483619
 H         -6.2270262428        2.7925454800       -3.7728154875
 H         -5.7130086645        4.0978552045       -2.7036572222
 H         -6.6286388405        2.2102818192       -1.3772572536
 H         -4.9146731029        2.4425044136       -1.0335999789
 H         -4.3450183921        0.6158974773       -2.6235362373
 H         -6.0589458551        0.3885573246       -2.9784225795
 H         -5.8963791578       -1.9771229185       -2.3018359741
 H         -4.1799960176       -1.7495255708       -1.9613607755
 H         -4.5464841309       -2.5199349656        0.3806465353
 H         -6.2591139408       -2.7549294973        0.0325925363
 H         -5.0247164915       -4.9010963814       -0.1393177378
 H         -3.9553621047       -4.2073428925       -1.3584240915
 H         -5.6669150206       -4.4416834624       -1.7167604914
 H         -8.1765975096       -0.7613160917       -1.9201805050
 H        -10.1657473747       -0.4803246421       -0.4906626257
 H         -9.9384664409        0.2333626187        1.8446280229
 H         -7.7084759360        0.6801335495        2.8094001330
 H         -5.1910185033        0.9953569129        3.3285690173
 H         -2.7205810321        1.1190484504        3.3392545087
 H          1.6660724141        1.3019645406        3.3481163932
 H          4.1385182056        1.2641080177        3.3793781963
 H          1.6394862006       -0.1569254862       -0.6772035861
 H          3.3786541758        0.4338749247       -2.5503446953
 H          5.1061385163        0.2753391873       -2.8728469521
 H          5.5594580332        2.2438974538       -1.4182012531
 H          3.8342171144        2.3974626911       -1.0854985914
 H          4.5391547204        3.9706839942       -2.8747026010
 H          5.1208443510        2.6209391451       -3.8499750857
 H          3.3971829378        2.7858492497       -3.5100559694
 H          3.3175514435       -1.8768277368       -1.7077110401
 H          5.0446419458       -2.0435474584       -2.0278369411
 H          5.4309553151       -2.6340199998        0.3597335713
 H          3.7061921914       -2.4578507237        0.6837777136
 H          3.2117327093       -4.2926768624       -0.9322463787
 H          4.9355790397       -4.4659403977       -1.2663459924
 H          4.3054690786       -4.8430808133        0.3372518589
 H          7.2671440671       -0.6789349602       -1.7258624482
 H          8.9367401474        0.6352992033        1.9957751821
 H          6.6697768072        1.0292860614        2.9088100515
 H         -2.5903604645       -0.0693967024       -0.7721162395
