  77
       -126.11513194
 N         -7.4835315156        3.0269788200        1.4710073335
 C         -6.3744160527        2.9525453643        1.1674115611
 C         -5.0254560440        2.8530743580        0.8036649977
 C         -4.5344500694        3.5404124827       -0.3207172998
 C         -3.2142602721        3.4329396362       -0.6783784364
 C         -2.3353096014        2.6406402063        0.0741468879
 N         -0.9954856002        2.5012450434       -0.3068475684
 C         -0.2848555522        3.6071455128       -0.7908908207
 C          0.6523549408        3.4536857345       -1.8118850841
 C          1.3592667862        4.5446095561       -2.2777185290
 C          1.1338786640        5.8037431219       -1.7457927900
 C          0.1940055760        5.9636746901       -0.7405045091
 C         -0.5090942630        4.8762630302       -0.2596265918
 C         -0.3809856757        1.2640609430       -0.1993493257
 C          0.9722835733        1.1609772393        0.1671794276
 C          1.5643777229       -0.0776637348        0.2879684150
 N          2.9367897150       -0.1642769553        0.6385809695
 C          3.9005033987        0.2370574139       -0.2596368386
 C          3.6001775170        0.6764887474       -1.5523592057
 C          4.5956613207        1.0811648764       -2.4088479360
 C          5.9424614677        1.0538702521       -2.0013621790
 C          6.2695820386        0.5990018298       -0.7434392019
 C          5.2764110598        0.1808272823        0.1347357194
 O          5.6482504901       -0.2843261526        1.3513744311
 C          4.6899595347       -0.6948399629        2.2158253969
 C          5.0860814938       -1.1672252058        3.4623485217
 C          4.1472993814       -1.5712023501        4.3848916805
 C          2.7777957232       -1.4907525065        4.0739131845
 C          2.3669188248       -1.0252858786        2.8468953824
 C          3.2989376009       -0.6345824477        1.8814527081
 C          0.8449254176       -1.2548215673        0.0710119316
 C         -0.5018538019       -1.1483831930       -0.2947851515
 N         -1.2453642892       -2.3298362474       -0.5329379658
 C         -0.9397467698       -3.1409935755       -1.6191303444
 C          0.0607661861       -2.8163218010       -2.5303789015
 C          0.3420141494       -3.6516340251       -3.5979896358
 C         -0.3764088119       -4.8201108207       -3.7815576628
 C         -1.3938642933       -5.1462300503       -2.8995036312
 C         -1.6816103811       -4.3160410227       -1.8295185357
 O         -2.7134561581       -4.6840524844       -1.0106553794
 C         -3.0167178278       -3.8629966616        0.0416929453
 C         -4.0712442063       -4.2389610386        0.8557638562
 C         -4.4156883800       -3.4661664770        1.9524366551
 C         -3.6894799406       -2.3234316359        2.2407261829
 C         -2.6351187876       -1.9410020394        1.4306957901
 C         -2.2919537142       -2.6890861281        0.3091553553
 C         -1.1053023282        0.0833494750       -0.4339625901
 C         -2.8223258595        1.9674596537        1.2044933034
 C         -4.1418630723        2.0666050534        1.5638008963
 H         -5.2110153932        4.1471396398       -0.9045703632
 H         -2.8408885610        3.9539666310       -1.5481676988
 H          0.8127702851        2.4767898875       -2.2436596151
 H          2.0835446468        4.4116219857       -3.0677009323
 H          1.6849651465        6.6552608249       -2.1145310723
 H          0.0121546051        6.9420045571       -0.3210275589
 H         -1.2340264540        4.9998037071        0.5313430430
 H          1.5485973153        2.0542709112        0.3537768563
 H          2.5703259676        0.6902936213       -1.8729921434
 H          4.3447714262        1.4182380877       -3.4019389293
 H          6.7153884560        1.3820003523       -2.6767718476
 H          7.2942875689        0.5515515338       -0.4100652721
 H          6.1419340536       -1.2025412353        3.6794270763
 H          4.4588270176       -1.9387236244        5.3489434822
 H          2.0450050967       -1.7915412562        4.8053360540
 H          1.3147544802       -0.9561491918        2.6186870710
 H          1.3160246559       -2.2184320204        0.1750651296
 H          0.6180137955       -1.9020551237       -2.4020527258
 H          1.1259363547       -3.3809086991       -4.2882093765
 H         -0.1564408642       -5.4732173414       -4.6109752041
 H         -1.9826310287       -6.0406793071       -3.0245027719
 H         -4.6068868970       -5.1425979174        0.6129087609
 H         -5.2417546562       -3.7621988793        2.5788346406
 H         -3.9401627194       -1.7232623501        3.1012073738
 H         -2.0685855019       -1.0551972207        1.6672255015
 H         -2.1414445523        0.1433738536       -0.7305684459
 H         -2.1381176804        1.3832366562        1.8031004749
 H         -4.5118303314        1.5522613884        2.4385678676
