  90
       -142.26951026
 O          8.2944397197        3.0192360925       -0.2507163338
 C          7.9958742153        1.8295406341       -0.1685049352
 C          8.9006725969        0.6663493146       -0.0815864391
 C         10.2842784415        0.6294534200       -0.0677799520
 C         10.9086540538       -0.6071126634        0.0237542320
 C         10.1724107541       -1.7820003101        0.0996832150
 C          8.7827850317       -1.7570475220        0.0866318410
 C          8.1563336092       -0.5297850547       -0.0035264591
 C          6.7525814234       -0.1834911537       -0.0349321340
 N          5.6944011725       -0.9085271446        0.0116205020
 C          4.4711960388       -0.3367262092       -0.0314210661
 C          3.3105943543       -1.0997626565        0.0034839633
 C          2.0572210453       -0.5123492818       -0.0469065220
 C          0.8373402235       -1.3267261391       -0.0758827717
 C         -0.1604079013       -1.0556014837       -1.0144614968
 C         -1.3570906220       -1.7321304287       -0.9874964218
 C         -1.5970916466       -2.7064948045       -0.0172016971
 N         -2.8593024807       -3.3045859240        0.0566153507
 C         -2.9970636914       -4.6662810097        0.3224642823
 C         -4.0960195496       -5.1433137322        1.0383503598
 C         -4.2275203717       -6.4943659559        1.2914713713
 C         -3.2682203617       -7.3898324801        0.8471012158
 C         -2.1722613061       -6.9208197477        0.1410262069
 C         -2.0349561207       -5.5728893657       -0.1252015601
 C         -3.9821542106       -2.4851642076       -0.1222270403
 C         -5.0866968149       -2.9290270595       -0.8474216261
 C         -6.1752069571       -2.0974821191       -1.0299066275
 C         -6.1822968220       -0.8199553166       -0.4940168737
 C         -5.0897654926       -0.3779991538        0.2340728387
 C         -3.9956778581       -1.1991363133        0.4186484951
 C         -0.5771753970       -3.0356320028        0.8747887290
 C          0.6235256398       -2.3558115030        0.8388448971
 C          1.9551067088        0.9011400733       -0.0962447333
 C          0.6215111866        1.5281249601       -0.0397249429
 C          0.1718491191        2.3607594945       -1.0598836002
 C         -1.1169132646        2.8540733035       -1.0466248293
 C         -1.9751090531        2.5523913927        0.0093765138
 N         -3.2997764676        3.0151477803       -0.0066528372
 C         -4.0501172751        2.8452495412       -1.1746111801
 C         -4.9926256287        3.7953455393       -1.5667686422
 C         -5.7395751659        3.5994452398       -2.7120680136
 C         -5.5561690728        2.4645946376       -3.4854523169
 C         -4.6100067659        1.5256981796       -3.1080250860
 C         -3.8602034161        1.7099905131       -1.9636792188
 C         -3.8559292564        3.5688158882        1.1465565687
 C         -3.0473813917        4.2724119758        2.0414966718
 C         -3.5863704499        4.8163413910        3.1902398351
 C         -4.9366635077        4.6771181454        3.4674548431
 C         -5.7449550622        3.9824206392        2.5826434917
 C         -5.2148181946        3.4288235079        1.4337738720
 C         -1.5063064881        1.7727174155        1.0655078483
 C         -0.2282551634        1.2580507331        1.0309501775
 C          3.0873405653        1.6790830351       -0.1516031356
 C          4.3706740820        1.1055569582       -0.1294714160
 N          5.4745754820        1.8286733157       -0.1773879343
 C          6.6603394953        1.2645494983       -0.1355477758
 H         10.8531011704        1.5442784784       -0.1270593855
 H         11.9876731628       -0.6571712690        0.0362670004
 H         10.6857639522       -2.7293325225        0.1701276959
 H          8.2035002972       -2.6656549368        0.1456167213
 H          3.4078822141       -2.1742455811        0.0428115056
 H          0.0135813438       -0.3136438454       -1.7785734794
 H         -2.1258608387       -1.5101008662       -1.7133562895
 H         -4.8386377715       -4.4468843427        1.3990385937
 H         -5.0817049576       -6.8495487385        1.8488122591
 H         -3.3738962806       -8.4446080234        1.0493679496
 H         -1.4219475545       -7.6117328550       -0.2139752066
 H         -1.1869965059       -5.2120825086       -0.6886159772
 H         -5.0794457539       -3.9226138416       -1.2712632843
 H         -7.0218170961       -2.4484915411       -1.6011035860
 H         -7.0328418091       -0.1726801690       -0.6437845749
 H         -5.0913486876        0.6087361544        0.6710273881
 H         -3.1429602936       -0.8531635945        0.9847485880
 H         -0.7451394289       -3.8049405625        1.6142526103
 H          1.3914637783       -2.5915920664        1.5611360905
 H          0.8303328600        2.5950701451       -1.8836849698
 H         -1.4738121130        3.4721119650       -1.8575001323
 H         -5.1298217401        4.6862469564       -0.9716620070
 H         -6.4664960120        4.3422242637       -3.0058632253
 H         -6.1442422746        2.3152066176       -4.3781234212
 H         -4.4617348811        0.6369023813       -3.7033242662
 H         -3.1312750038        0.9720055265       -1.6631185793
 H         -1.9966470137        4.3944675154        1.8235631303
 H         -2.9480864282        5.3616208615        3.8695364915
 H         -5.3555045378        5.1069517804        4.3643275435
 H         -6.7978481710        3.8627658078        2.7916431298
 H         -5.8531492786        2.8837707800        0.7537260506
 H         -2.1597303681        1.5588592386        1.8988923430
 H          0.1192728469        0.6307377089        1.8385453229
 H          3.0148232178        2.7553062751       -0.1841207226
