90
 energy: -142.275337806508 gnorm: 0.000096405937 xtb: 6.7.1 (edcfbbe)
O            8.28085798498721        3.05565503810792       -0.13243475912181
C            7.98616760501033        1.86326867212474       -0.09508704562967
C            8.89956077939614        0.69929965057830       -0.06573583643609
C           10.28153382591745        0.66647001277724       -0.07376839462747
C           10.91001247604150       -0.57282679036980       -0.04155215437795
C           10.17732185411766       -1.74982627478639       -0.00225655984208
C            8.78647580349764       -1.72720860831271        0.00606249535850
C            8.15879414934756       -0.49877289420244       -0.02581481977799
C            6.75154663850674       -0.15375365333996       -0.02803978508075
N            5.69830310339478       -0.88600576400062       -0.00163731962495
C            4.47033333837158       -0.32000792673654       -0.01572153327863
C            3.31504017328918       -1.09090848503975       -0.00740338342781
C            2.05800065873924       -0.50969042534634       -0.03375843216402
C            0.84373361132532       -1.33249629151589       -0.09845391466786
C           -0.13723525230163       -1.04941361647160       -1.04995232911539
C           -1.32816521400242       -1.73674878922433       -1.06095141397087
C           -1.58166314653088       -2.72807773000739       -0.11104783800448
N           -2.83764603327281       -3.33936288263461       -0.07142072951966
C           -2.96542517305124       -4.69929626579514        0.21646601805287
C           -4.06311024547995       -5.17303712312304        0.93574985739745
C           -4.18318736280109       -6.52042265130265        1.21365851674097
C           -3.21351893849087       -7.41476944760040        0.79029331786902
C           -2.11958002779850       -6.94898434553447        0.07917468891874
C           -1.99396560936903       -5.60486318471177       -0.21157169051584
C           -3.96915024125844       -2.54376556027449       -0.29730393327782
C           -5.04920078745925       -3.02949358688788       -1.03254879789038
C           -6.14901344677625       -2.22521445907548       -1.26306044175408
C           -6.19076822646009       -0.93202084781687       -0.76801422936466
C           -5.12279097566188       -0.44801263601920       -0.03034033060243
C           -4.01923068560208       -1.24306702645536        0.20519782760858
C           -0.57787750199144       -3.06300218501913        0.79722738123062
C            0.61985433849110       -2.37693499550626        0.79483651222524
C            1.94478737563354        0.90097212696917       -0.02936319029876
C            0.60837327903527        1.51822614193028        0.04349395215192
C            0.17595743223144        2.41854824140254       -0.92548238472313
C           -1.11090478241806        2.91578316700606       -0.89906418629753
C           -1.98975427136595        2.54550867062618        0.11822028617834
N           -3.30810924142687        3.01893548405315        0.11647268631002
C           -4.02258217337062        3.01269801364390       -1.08747099589782
C           -4.91603315368628        4.03842449036788       -1.39335448736603
C           -5.62600219333581        4.00935579461045       -2.57796828016030
C           -5.45347103377199        2.96751323853940       -3.47476527862659
C           -4.55895240233757        1.95167576139601       -3.17938530607001
C           -3.84685350243701        1.96913854001856       -1.99659304094218
C           -3.90378930189573        3.44027960857429        1.30664810945776
C           -3.13172531173911        4.04121754904882        2.30230011021611
C           -3.71431666125879        4.45073016087514        3.48522301391362
C           -5.07245670902283        4.27762572978412        3.69699226510144
C           -5.84525276976426        3.68728410427436        2.71071604826982
C           -5.27125587166059        3.26825439777610        1.52649141764712
C           -1.54053420694706        1.68904033898317        1.12300759356100
C           -0.26230482984263        1.17654111855179        1.07670505704258
C            3.07561229840234        1.68798900951458       -0.05530097870865
C            4.35870686497230        1.12262405253188       -0.05742012329967
N            5.46317625209657        1.85204223733602       -0.08248073536973
C            6.65501987036844        1.29324206630449       -0.07066797591602
H           10.84838065875288        1.58388837595495       -0.10459349686967
H           11.98910986237646       -0.62033178990538       -0.04740132265342
H           10.69228897902932       -2.69858576530054        0.02207078144061
H            8.20973362051593       -2.63873046479987        0.03626872596454
H            3.41824523432839       -2.16550284659896       -0.00858074481873
H            0.04538698834680       -0.28819156787607       -1.79311953304461
H           -2.08277898489290       -1.50677651943532       -1.79889268922803
H           -4.81428022113863       -4.47681443933904        1.27884024777634
H           -5.03676714452008       -6.87343703025424        1.77342119878235
H           -3.30965285905779       -8.46645436496592        1.01276766197542
H           -1.36135103361587       -7.63936672022363       -0.25994891635769
H           -1.14678134542429       -5.24632395617417       -0.77772127818135
H           -5.01452477292107       -4.03481428672535       -1.42633372325430
H           -6.97633963823225       -2.60972675937365       -1.84114981776172
H           -7.04916210380172       -0.30523750468052       -0.95568086430597
H           -5.15094433715665        0.55230982435827        0.37332449479584
H           -3.18689910496814       -0.86330003366624        0.77989693019827
H           -0.75541263677199       -3.84335948998765        1.52265930410515
H            1.37554523772706       -2.61996189876526        1.52772284864824
H            0.84760495563984        2.70645405990903       -1.72122260348579
H           -1.44966569951551        3.59209181734496       -1.67021903102772
H           -5.04488430732095        4.85603043465854       -0.69925948609868
H           -6.31404593686406        4.81027348248155       -2.80520574704714
H           -6.01146965128945        2.94864777354091       -4.39847279948930
H           -4.42158462472894        1.13325466959793       -3.87051275155797
H           -3.15822558944548        1.17097069214020       -1.76108599302064
H           -2.07468520255836        4.18939114445061        2.13712584231472
H           -3.10363110263821        4.91687903477570        4.24428201272591
H           -5.52492239846716        4.60152270657010        4.62167573518491
H           -6.90443591545330        3.54406002113985        2.86643104074202
H           -5.88236036985736        2.80539363515138        0.76523496617731
H           -2.20836866085812        1.41696581308010        1.92749223450370
H            0.06937188139824        0.49636217189854        1.84726360641107
H            2.99513048148901        2.76410120773933       -0.04829907090156
