103
 energy: -163.623110853740 gnorm: 0.000070233815 xtb: 6.7.1 (edcfbbe)
O            0.09935662324329        3.48623314621276        3.66932977088846
S            0.01989070122464        3.14875429532327        2.26154665288469
O           -0.00449007392705        4.25452399365780        1.32522127133229
C           -1.43506129815657        2.13403172470368        2.00072879058722
C           -1.99086778011433        1.45150063055082        3.06637029706354
C           -3.09386140463352        0.64556188101881        2.85493682213068
C           -3.64843677549502        0.52238664840031        1.58000123382133
C           -4.82884531576260       -0.32584001780368        1.35885525321057
C           -4.92183205886507       -1.57742191055126        1.97025769009760
C           -6.02076776522551       -2.39533634995010        1.77678740043177
C           -7.05094513536755       -1.94936862625265        0.96387625844109
C           -6.96412932592372       -0.69012973311862        0.35045485020056
C           -5.86673325873130        0.11816760194145        0.53473415477683
C           -8.19679034997801       -0.41717134184313       -0.47808749338971
C           -8.93794338633397        0.83239832931332       -0.06254028122657
C           -9.46839459214160        1.14227846435753        1.17083769724081
C          -10.11954340312905        2.35947050668515        1.32426414848364
C          -10.23408853743672        3.24268936776454        0.26084795929303
C           -9.70185943091378        2.93394205473277       -0.98122112214115
C           -9.05107763002617        1.72132158593216       -1.14161521904105
C           -8.40302579658712        1.12553391940002       -2.30016141801925
C           -8.23923417745577        1.59005993181450       -3.59520190176523
C           -7.56545537700252        0.79214028991900       -4.50668550326425
C           -7.06430695603878       -0.44662745656332       -4.13475953342195
C           -7.22548056047190       -0.91914837422838       -2.83854963311964
C           -7.89498867381967       -0.12847373275437       -1.92998928651456
C           -8.99651809344940       -1.68148125665757       -0.26720199413520
C          -10.23023126360238       -2.01092046643850       -0.78499954033587
C          -10.78263067936005       -3.23997220574836       -0.44809040438132
C          -10.10953846756067       -4.11615701081172        0.39086020303597
C           -8.86867490802193       -3.78857354653055        0.91373744637883
C           -8.31121227494247       -2.56405728983727        0.58148126276258
C           -3.07045431864747        1.22342999073585        0.52004756652029
C           -1.96192646678885        2.02300540995822        0.72751763882825
C            1.40083396214786        2.07911697388241        1.85484760799963
C            2.09945276151508        2.26735264032105        0.67790800510017
C            3.15709153410048        1.42954574845790        0.37478927672549
C            3.51252001318669        0.39459528912959        1.24086181882712
C            4.63882932412527       -0.49424378421656        0.91996015368689
C            4.54044940470922       -1.86786957333049        1.14907659674373
C            5.58491569447187       -2.72575137006794        0.85364321422875
C            6.75427160545887       -2.19897778855599        0.32821424400627
C            6.85977292286426       -0.81828767326501        0.10076020055519
C            5.81735854043685        0.03270803549758        0.38434506064739
C            8.21879364069271       -0.47490347884882       -0.46148323167800
C            8.98078877144668        0.51701388764211        0.38633458150374
C            9.34547596705224        0.40857166609172        1.71067099249275
C           10.04799505747470        1.45664356581806        2.29137520362520
C           10.37460264164594        2.58673555031506        1.55633932579997
C           10.00949758289517        2.69890735233868        0.22390086471335
C            9.30971495993918        1.65660528863572       -0.36237294227297
C            8.79893605279370        1.48398522021084       -1.71390070554447
C            8.86044202183935        2.30809813745418       -2.82604040937781
C            8.27506123255442        1.87574332678951       -4.00580326475269
C            7.64084634039717        0.64417836335434       -4.07653995705582
C            7.57576953798209       -0.18736758204402       -2.96583019863014
C            8.15650542058423        0.23939542188827       -1.79129218039266
C            8.87478473995550       -1.83358532236184       -0.53392842647248
C           10.14093088089110       -2.15094262712603       -0.97551471408778
C           10.53682773913937       -3.48203689783396       -0.94933672070668
C            9.67851542392577       -4.47023998412175       -0.48961696605678
C            8.40442904984354       -4.15529641665653       -0.04456236624640
C            8.00290617687939       -2.82907988221449       -0.06708812825171
C            2.78628053225809        0.22019822601879        2.42059318062718
C            1.73369049294106        1.06084553991018        2.72896958341404
H           -1.56357910870647        1.58135610995684        4.04855240078292
H           -3.54505287545183        0.12613536600113        3.68654308962902
H           -4.10559929339869       -1.92134424953342        2.58799010504076
H           -6.07175968908207       -3.36366073745302        2.25173220062817
H           -5.81726259256487        1.09283390930180        0.07197245504121
H           -9.38096875366919        0.45432211279292        1.99950035525586
H          -10.54252360467899        2.62081255817006        2.28338661447015
H          -10.74502130435993        4.18412809680962        0.40354841681955
H           -9.79440760689259        3.62514402387736       -1.80593761168023
H           -8.62817405688057        2.55353066470676       -3.89000944937679
H           -7.42874286959132        1.13896026373817       -5.52096173541820
H           -6.54249875599988       -1.05162083505348       -4.86201075028790
H           -6.83520523187527       -1.88455100142589       -2.54997739573302
H          -10.75634326648208       -1.32929219900384       -1.43784659563083
H          -11.74905907636767       -3.51627666109323       -0.84395817105106
H          -10.55993081159098       -5.06647924175206        0.63902370291319
H           -8.34894585111540       -4.47361137649939        1.56700177446781
H           -3.48420499086088        1.12659460161692       -0.47232792065258
H           -1.50624068941716        2.57771921861812       -0.07776605613266
H            1.80990714231946        3.07642651054932        0.02518644740151
H            3.70254265343354        1.56658805801526       -0.54669616585957
H            3.61874453605093       -2.26916071335938        1.54352942316171
H            5.48748661851692       -3.78645691929572        1.03037741179597
H            5.91545434305345        1.09595740909705        0.22185141665455
H            9.09109174788359       -0.47078252746394        2.28480572375216
H           10.34357527292527        1.39025617664281        3.32838663523792
H           10.92112981798450        3.38990715128584        2.02968003681593
H           10.26659019192522        3.58082938270807       -0.34410761679273
H            9.35353380745145        3.26772164212223       -2.77632963056570
H            8.31360259785013        2.50562867575603       -4.88303776805736
H            7.19207538325052        0.32728848917984       -5.00678542098357
H            7.08247952080319       -1.14707716947662       -3.02264927400110
H           10.81052304614414       -1.38225152072685       -1.33378892330912
H           11.52599895202683       -3.75059087055199       -1.29081319957164
H           10.00892845528115       -5.49895815820892       -0.47903192117796
H            7.74007495901059       -4.92805581147928        0.31269083170624
H            3.06536092812761       -0.56344857572290        3.10828138429351
H            1.17822864027776        0.95307084070509        3.64712344353455
