103
 energy: -163.526816174898 gnorm: 0.000040304481 xtb: 6.7.1 (edcfbbe)
O            0.27865173820677        4.35152358915461        1.34786244595414
S            0.01116159221524        3.58187020209866        0.14550157440395
O           -0.19891338548444        4.33944837957331       -1.07498285974606
C           -1.38515050808171        2.52420273454420        0.41677554675208
C           -1.42109668506817        1.72986723350257        1.56497792935769
C           -2.45968503737007        0.86391814954466        1.76757501325426
C           -3.53545315589945        0.75481256741130        0.83379895036239
C           -4.62489171368587       -0.12521982128876        1.04544798900727
C           -4.52918477535113       -1.24035100011285        1.95609807883496
C           -5.55255299977710       -2.10463952043928        2.17002992457950
C           -6.78808610264770       -1.90884035752868        1.49749597185610
C           -6.90527545446347       -0.79254612196739        0.59429943916714
C           -5.87746660337741        0.05364451237612        0.36284312867400
C           -8.30023353492860       -0.75650751015927        0.01316530216482
C           -9.03542637324901        0.52992093477638        0.31234519016594
C           -9.32001857093322        1.08824773485436        1.53986536653626
C          -10.00981791277647        2.29288392944873        1.57434230938443
C          -10.40420605429572        2.92039349608569        0.40084303052166
C          -10.12027896611120        2.36206725377557       -0.83521952275300
C           -9.43218787607644        1.15964461702683       -0.87778172861735
C           -8.99485546699290        0.34427218754293       -1.99927746388051
C           -9.13660037989326        0.51994062072321       -3.36680045666787
C           -8.60808621061277       -0.43847183254945       -4.21676092588662
C           -7.94923747397201       -1.55202018983499       -3.71439249409220
C           -7.80344658918238       -1.73511941253570       -2.34566369055842
C           -8.32827828877726       -0.78452116965775       -1.49662810987871
C           -8.93566398414756       -1.96735014196772        0.65169254441295
C          -10.20443573940869       -2.45476078854351        0.48917414484146
C          -10.57905355717388       -3.60144688680274        1.19419186644007
C           -9.67818901235129       -4.24180511659279        2.05195970152682
C           -8.40122481400626       -3.76735170818648        2.22885768124667
C           -8.00279133884974       -2.61118606477288        1.52452299299662
C           -3.45942030269269        1.58573969937856       -0.32555390838551
C           -2.40487007465523        2.43236837893667       -0.53089649952716
C            1.37989997796927        2.45081776540992       -0.10493049414069
C            1.41170524287697        1.67819821088959       -1.25221881289103
C            2.43894872751645        0.77191559103629       -1.43166553958127
C            3.43996063351007        0.63096405405077       -0.46721919624825
C            4.53366557641223       -0.33264460523310       -0.65050236815274
C            4.27841841114147       -1.60416062426036       -1.16995370080663
C            5.28747976367600       -2.53741885125039       -1.32452119238778
C            6.58039361728136       -2.19156361939933       -0.96157966390950
C            6.84438061639661       -0.91009342953570       -0.45223227138248
C            5.83977701604736        0.01412684820573       -0.29104028657447
C            8.31253823502991       -0.75786946291598       -0.13197698016726
C            8.57037875266420       -0.35926141387743        1.30181938484246
C            8.19484830784352       -1.01601492621930        2.45357751832049
C            8.53770683374317       -0.45473464367546        3.67699304144303
C            9.23945990768770        0.74050354636061        3.73906462173107
C            9.61766228157535        1.40450602202779        2.58277428072417
C            9.27996069328281        0.84997176335009        1.35846389165346
C            9.53241881630816        1.30103315629043       -0.00120076339998
C           10.19078040669567        2.41994933557684       -0.48589759688683
C           10.28476526637720        2.59229317684541       -1.85787558522815
C            9.73361599225125        1.66626537570328       -2.73165345636984
C            9.07088135147762        0.54336294085281       -2.25323832643702
C            8.97450251753608        0.36967170486516       -0.88978328194974
C            8.85102280701811       -2.11988931379713       -0.49998125128758
C           10.14573454186938       -2.58232428905388       -0.40890947581958
C           10.41413316096552       -3.88312225145083       -0.81562319648338
C            9.40321907435076       -4.69878555281185       -1.30409947993394
C            8.09975837690956       -4.23822606235946       -1.39665537387788
C            7.82384157577770       -2.94128401168369       -0.99174002445746
C            3.38562232682826        1.42143452706046        0.68241938881042
C            2.35524777528491        2.32372972603197        0.86643281342571
H           -0.62515226582923        1.83246466201855        2.28678284631280
H           -2.48676684517299        0.29024384567619        2.67955478216277
H           -3.58684460630191       -1.41585887951535        2.44948242152380
H           -5.43822063357262       -2.94213410476640        2.84181347291856
H           -6.01249676187412        0.89536432619722       -0.29750999593694
H           -9.01261153687833        0.60174093225287        2.45425523895300
H          -10.24200761636049        2.74747042757286        2.52638348196559
H          -10.93963448730290        3.85742638584941        0.45326437102647
H          -10.42916370289925        2.85479172915233       -1.74514156579533
H           -9.64755314882289        1.38487476301510       -3.76300725444293
H           -8.70962439367936       -0.31814533817307       -5.28577067141704
H           -7.54469248689019       -2.28526601215592       -4.39673839585442
H           -7.29038986633573       -2.60244643223060       -1.95606161131207
H          -10.90624837641574       -1.96492028722264       -0.17015208546340
H          -11.57607995593758       -3.99755758505081        1.07643644958782
H          -10.00022145389034       -5.12641602321377        2.58235226099426
H           -7.70804518225916       -4.26324766830556        2.89080352929170
H           -4.22417954167312        1.51469464772905       -1.08191761367917
H           -2.33641008394825        3.05168971899736       -1.41256931098348
H            0.63980326538944        1.80984078382579       -1.99465991508464
H            2.48067626462701        0.18221514683837       -2.33475215808390
H            3.26421931036135       -1.87029196708017       -1.42827780063513
H            5.06820944656463       -3.51930123194329       -1.71643795507470
H            6.05680130920172        1.00160401108414        0.08864394115218
H            7.64688583341781       -1.94609157595021        2.40659856864426
H            8.25327063839399       -0.95467038231954        4.59148406452138
H            9.49474321651766        1.15830274968737        4.70235032725601
H           10.16356734840793        2.33478797123691        2.63645009940786
H           10.62274691313756        3.14330065979206        0.18976637788255
H           10.79459301207877        3.45910466788651       -2.25334412890431
H            9.82070933852458        1.82039715908520       -3.79739817200406
H            8.64224834419823       -0.17734180329489       -2.93466563292493
H           10.93409896951526       -1.94835780585253       -0.02937983302675
H           11.42302085993600       -4.26393943438904       -0.75121018377078
H            9.63710613832621       -5.70692687210391       -1.61468955491541
H            7.31617070114704       -4.87674334779149       -1.77650876243408
H            4.14395470119574        1.31249007612454        1.44313050958147
H            2.29244685403926        2.94516658105016        1.74670747065482
