  81
       -130.01219656
 N          1.7972839353        3.0663226146        0.9401622517
 C          2.5387284946        2.1930230525        0.7626424614
 C          3.4431484889        1.1787207490        0.5049602689
 C          4.8362688064        1.4178965733        0.4704901330
 C          5.3989616485        2.6993324391        0.9319859347
 C          6.4560219162        3.2666889885        0.2247176600
 C          7.0097500159        4.4604512945        0.6448992885
 C          6.5233479159        5.0915610532        1.7783793473
 C          5.4839310167        4.5214674519        2.4935921391
 C          4.9201108363        3.3300079332        2.0749137613
 N          5.6871344149        0.5408466047        0.0179759843
 C          5.2748283195       -0.6778245794       -0.4340057795
 C          6.2383469698       -1.6094158527       -0.9466498379
 C          5.8435260962       -2.8798899234       -1.3868168620
 C          6.7762184342       -3.7656518049       -1.8798684784
 C          8.1162321048       -3.4087297595       -1.9473138222
 C          8.5178892660       -2.1533783419       -1.5116764035
 C          7.5935441282       -1.2603205961       -1.0151984490
 N          3.9945992408       -0.9757518631       -0.3704996596
 C          3.0626503558       -0.1721713662        0.0888703850
 C          1.7209698299       -0.6882122192        0.1618188215
 C          0.7282259440       -0.1353549418        0.9869631935
 C         -0.5350902354       -0.6762595032        1.0245389358
 C         -0.8554769292       -1.7821575580        0.2353731282
 N         -2.1451756886       -2.3322679221        0.2954211518
 C         -2.3983957365       -3.6213563954        0.7370177830
 C         -1.5093823424       -4.6484888245        1.0069229632
 C         -2.0310888420       -5.8497484543        1.4573893497
 C         -3.3985925548       -6.0206619918        1.6462825057
 C         -4.2865385351       -4.9879526469        1.4032869805
 C         -3.7856272474       -3.7766298396        0.9479157209
 C         -4.3876512386       -2.5117712326        0.6324343869
 C         -5.6993047906       -2.0636912040        0.7350511384
 C         -5.9982725901       -0.7575979863        0.4055342028
 C         -4.9813005020        0.0581519040       -0.0909308620
 C         -3.6356649775       -0.3623635978       -0.2345457077
 C         -2.9269645739        0.7400468012       -0.8261502329
 C         -1.6447092285        0.9251284646       -1.3365058681
 C         -1.3076654875        2.1517421480       -1.8707894128
 C         -2.2321271286        3.1932942641       -1.9442775974
 C         -3.5261781698        3.0241179507       -1.5001058182
 C         -3.8655151331        1.7981625549       -0.9407269264
 N         -5.0927376294        1.3700833691       -0.4972065335
 C         -6.2664385049        2.1410956836       -0.4825085356
 C         -6.2761646633        3.3753016821        0.1601286182
 C         -7.4295323371        4.1378542641        0.1687230652
 C         -8.5771166175        3.6748641426       -0.4537513542
 C         -8.5680512635        2.4461034212       -1.0930858152
 C         -7.4171809343        1.6798489280       -1.1144443486
 C         -3.3320794920       -1.6559115025        0.2080324666
 C          0.1266888491       -2.3583183807       -0.5731286102
 C          1.3903570465       -1.8232949486       -0.6045478165
 H          6.8269108918        2.7657083464       -0.6568566686
 H          7.8246275482        4.8991460383        0.0881437737
 H          6.9569818657        6.0245213519        2.1064840103
 H          5.1082296037        5.0046068877        3.3831800204
 H          4.1197730566        2.8840505202        2.6448321678
 H          4.7997929636       -3.1491067277       -1.3256349251
 H          6.4637681291       -4.7443025763       -2.2151981995
 H          8.8436443567       -4.1059329823       -2.3354717210
 H          9.5609233633       -1.8757412346       -1.5621128698
 H          7.8920973593       -0.2819071938       -0.6695494248
 H          0.9555162204        0.7104707212        1.6131063250
 H         -1.2914453010       -0.2489549017        1.6652492177
 H         -0.4457990544       -4.5173491928        0.8810420012
 H         -1.3604771896       -6.6684336336        1.6704989135
 H         -3.7685930422       -6.9720333976        1.9974509204
 H         -5.3454872335       -5.1178921825        1.5666438423
 H         -6.4708734604       -2.7295214940        1.0882467630
 H         -6.9987837826       -0.3722397987        0.5234824658
 H         -0.9239436436        0.1272015949       -1.3390494553
 H         -0.3086301310        2.3061429112       -2.2484739933
 H         -1.9346440416        4.1377247241       -2.3735240161
 H         -4.2586557976        3.8108684343       -1.5974618965
 H         -5.3831424264        3.7213798654        0.6590759492
 H         -7.4331109248        5.0941272979        0.6698324447
 H         -9.4765429524        4.2712287899       -0.4420468812
 H         -9.4584553633        2.0851657094       -1.5856674485
 H         -7.3964572924        0.7327389585       -1.6331263229
 H         -0.1243494611       -3.2071064243       -1.1921708559
 H          2.1508671289       -2.2530231159       -1.2375871189
