  89
  -139.022804869100       0.674810290193595      !
 C         11.9807622902        0.0947256167        1.2279754461
 C         10.8259264527        0.6019069999        1.6452871983
 C          9.7720377966        1.1644958118        0.8124374888
 C          8.7086892925        1.8330689636        1.4227769067
 C          7.6944189936        2.3965345850        0.6761608287
 C          7.7021811329        2.2947541642       -0.7088502621
 C          6.6019565987        2.9160497494       -1.5346358894
 O          5.3598875109        3.0114391873       -0.8683363084
 C          4.6845742454        1.8777653470       -0.5681379437
 C          3.4245847955        2.0835650345        0.0304398672
 C          2.6085301523        1.0303616997        0.3699056835
 C          3.0570371384       -0.2600642446        0.1074873669
 C          4.3458553569       -0.4806690701       -0.4496438804
 C          5.1565545789        0.5880776270       -0.8002904455
 C          4.5212057919       -1.9017433145       -0.5131338967
 C          5.5519662928       -2.7254203748       -0.9470785662
 C          5.3733736789       -4.0971345708       -0.8868303916
 C          4.1857265916       -4.6500553956       -0.4169701769
 C          3.1449999351       -3.8472414309        0.0285182224
 C          3.3281698454       -2.4756085709       -0.0041634514
 N          2.4610994250       -1.4651139235        0.3683839180
 C          1.1829336060       -1.6553539790        0.8995978659
 C          0.9994533806       -2.4849409677        1.9842495215
 C         -0.2692207224       -2.6815542423        2.5321903722
 C         -1.3665312641       -2.0163223493        1.9818350306
 C         -1.2193203424       -1.1811212640        0.8958438550
 N         -2.3303326832       -0.5236502016        0.3614393273
 C         -2.4315050155        0.8314837210        0.1096632994
 C         -1.5243840186        1.8449692184        0.3660750265
 C         -1.8940488584        3.1426645175        0.0490541739
 C         -3.1417235958        3.4241270573       -0.4987115871
 C         -4.0642193083        2.4187091689       -0.7341181493
 C         -3.7148732318        1.1116287266       -0.4240093047
 C         -4.4079895922       -0.1409558661       -0.4920830647
 C         -5.6776102811       -0.4959099094       -0.9230157265
 C         -6.0480903314       -1.8358517080       -0.8508072589
 O         -7.2562103570       -2.3232795684       -1.2209057011
 C         -8.2171481632       -1.4423846287       -1.7670618077
 C         -8.6995481811       -0.3785215618       -0.8114223560
 C         -8.7361830780       -0.6153865763        0.5568532905
 C         -9.1736056725        0.3652396927        1.4230800581
 C         -9.5963999856        1.6115948303        0.9542215050
 C        -10.0445361152        2.6120167968        1.9118867005
 C        -10.4229357710        3.8579064405        1.6455838739
 C         -9.5677979815        1.8334113829       -0.4247763150
 C         -9.1237618983        0.8562254153       -1.2907459616
 C         -5.1409375202       -2.8059770334       -0.3773743787
 C         -3.8757937865       -2.4652942059        0.0459168114
 C         -3.5114732759       -1.1230413043        0.0082178168
 C          0.0661499228       -0.9930736752        0.2880992905
 C          0.2005306852       -0.3343173336       -0.9215133129
 N          0.3150074327        0.2059687641       -1.9425410859
 C          8.7490410649        1.6204218629       -1.3271897934
 C          9.7690000108        1.0679497070       -0.5807211188
 H         12.2569033747        0.0509583693        0.1886351608
 H         12.7045959011       -0.2938264611        1.9233011549
 H         10.6209164146        0.6314425610        2.7087073416
 H          8.6859044416        1.9190677700        2.5000123489
 H          6.8834307566        2.9153981301        1.1657551311
 H          6.4839187932        2.3716142607       -2.4817151847
 H          6.8604377425        3.9558498253       -1.7677944730
 H          3.1160648813        3.1009081631        0.2072839857
 H          1.6507809893        1.2052317090        0.8300601810
 H          6.1295174241        0.4059919486       -1.2240937389
 H          6.4702232398       -2.3014929981       -1.3238957975
 H          6.1643384514       -4.7525538207       -1.2189703030
 H          4.0688382931       -5.7227726211       -0.4007105321
 H          2.2206729621       -4.2798156765        0.3791720612
 H          1.8596792312       -2.9558500758        2.4363509759
 H         -0.3955298200       -3.3147879687        3.3940222083
 H         -2.3419694093       -2.1233348750        2.4326026915
 H         -0.5615978563        1.6372354732        0.8023241052
 H         -1.2005306592        3.9486970367        0.2332368660
 H         -3.3950564857        4.4464448243       -0.7358140046
 H         -5.0373870755        2.6437417488       -1.1431335636
 H         -6.3487960239        0.2619912988       -1.2889415200
 H         -9.0513954270       -2.0979172465       -2.0436788221
 H         -7.8274332204       -0.9782403474       -2.6840822663
 H         -8.4126562370       -1.5726603907        0.9392106290
 H         -9.1899573115        0.1666253488        2.4853966948
 H        -10.0529651890        2.2737659645        2.9407850042
 H        -10.7369402001        4.5252032355        2.4293366596
 H        -10.4358080946        4.2653572415        0.6500594602
 H         -9.8935428566        2.7807380551       -0.8249363608
 H         -9.1034676760        1.0501891069       -2.3545387123
 H         -5.4694707525       -3.8324605646       -0.3646848538
 H         -3.1864565834       -3.2210771245        0.3880968507
 H          8.7608724077        1.5282759310       -2.4047917738
 H         10.5661280708        0.5453490170       -1.0857254971
  89
  -139.022056333400       0.305617702726840      !
 C         11.6254696217        0.0532411291        2.0377419437
 C         10.4757128742        0.6840748567        2.2521201722
 C          9.5605059817        1.1969172527        1.2420889578
 C          8.4483198424        1.9370127784        1.6493171335
 C          7.5574532632        2.4540509887        0.7313931272
 C          7.7426720816        2.2356766693       -0.6276986600
 C          6.7744170643        2.8051533939       -1.6360061768
 O          5.4580953666        2.9533633489       -1.1444514589
 C          4.7491186295        1.8480374315       -0.8162563071
 C          3.4579907042        2.1049174499       -0.3120984386
 C          2.6122100165        1.0848726575        0.0550618972
 C          3.0598304564       -0.2241613809       -0.0889083102
 C          4.3710094617       -0.4942419941       -0.5655337434
 C          5.2150968777        0.5410054754       -0.9369606353
 C          4.5299936802       -1.9185785746       -0.5277578831
 C          5.5658354461       -2.7814164340       -0.8616422073
 C          5.3649197300       -4.1438447676       -0.7187333035
 C          4.1513336851       -4.6507101648       -0.2629181609
 C          3.1050448192       -3.8082906621        0.0838829768
 C          3.3087852269       -2.4439605477       -0.0342600703
 N          2.4395611378       -1.4028291508        0.2293510705
 C          1.1498142466       -1.5445219297        0.7492323863
 C          0.9484678359       -2.2776018522        1.8979350551
 C         -0.3283495608       -2.4191060931        2.4450357810
 C         -1.4129300702       -1.7981075889        1.8250292271
 C         -1.2484666641       -1.0612724182        0.6713178766
 N         -2.3534956261       -0.4499169250        0.0756815668
 C         -2.4604005135        0.8804002284       -0.2861341523
 C         -1.5424923414        1.9076542472       -0.1548702314
 C         -1.9220062536        3.1753772090       -0.5686807775
 C         -3.1898392357        3.4156739847       -1.0888084477
 C         -4.1225250581        2.3984366747       -1.1999375574
 C         -3.7634557608        1.1209181152       -0.7923783719
 C         -4.4619761213       -0.1282155894       -0.7275733546
 C         -5.7528265665       -0.5083380643       -1.0640076358
 C         -6.1220744803       -1.8361147887       -0.8674788604
 O         -7.3515298862       -2.3411594262       -1.1259406489
 C         -8.3692441624       -1.4719942408       -1.5813291030
 C         -8.7227739884       -0.3779733878       -0.6034563461
 C         -8.5908218112       -0.5811334588        0.7650220346
 C         -8.8992623493        0.4226404901        1.6592549485
 C         -9.3621087378        1.6632691220        1.2153974992
 C         -9.6960004341        2.7580855301        2.1147890928
 C         -9.5566772820        2.7740668251        3.4365635343
 C         -9.5082995657        1.8499717719       -0.1617772739
 C         -9.1895419226        0.8502354890       -1.0572054667
 C         -5.1909088237       -2.7737902162       -0.3749633504
 C         -3.9078293551       -2.4065988048       -0.0364684260
 C         -3.5468996724       -1.0712246569       -0.1867331493
 C          0.0467079255       -0.9329936132        0.0666142803
 C          0.2035148298       -0.3837536902       -1.1938242705
 N          0.3368420417        0.0622734129       -2.2573144623
 C          8.8419172209        1.4935526653       -1.0448771243
 C          9.7380271207        0.9858583283       -0.1272430464
 H         12.0057770592       -0.1477685491        1.0512638546
 H         12.2379226238       -0.2852302840        2.8554995041
 H         10.1593535925        0.8607338272        3.2730418956
 H          8.2862509058        2.1131495706        2.7033150445
 H          6.7052453197        3.0274021143        1.0664060152
 H          6.7747933956        2.1980423655       -2.5517738886
 H          7.0762527982        3.8249664682       -1.9025276505
 H          3.1519732307        3.1345767365       -0.2242548149
 H          1.6332449876        1.2991503821        0.4492635317
 H          6.2074901762        0.3207122269       -1.2917308280
 H          6.5049979898       -2.3948438370       -1.2268744122
 H          6.1589731245       -4.8292330187       -0.9741893227
 H          4.0188913705       -5.7185829223       -0.1806074189
 H          2.1607735314       -4.2043703243        0.4245839148
 H          1.8004799501       -2.7119812131        2.3994331271
 H         -0.4691815472       -2.9724636926        3.3580959064
 H         -2.3938506031       -1.8577466913        2.2725293269
 H         -0.5623084911        1.7350026940        0.2565687453
 H         -1.2192836895        3.9898768887       -0.4834423697
 H         -3.4503745533        4.4150468507       -1.4032823369
 H         -5.1107136113        2.5918969160       -1.5885019083
 H         -6.4392170830        0.2231282042       -1.4543359410
 H         -9.2327806147       -2.1299280092       -1.7339778084
 H         -8.0935924685       -1.0385771514       -2.5530404396
 H         -8.2351162702       -1.5351103457        1.1269179700
 H         -8.7823707665        0.2375673032        2.7154468261
 H        -10.0916679996        3.6381612903        1.6219131659
 H         -9.8331811295        3.6379444783        4.0158116022
 H         -9.1663886354        1.9397626093        3.9933725402
 H         -9.8683149245        2.7997760265       -0.5313431199
 H         -9.3020799955        1.0209980350       -2.1190712197
 H         -5.5179995512       -3.7956435445       -0.2722044473
 H         -3.2033378093       -3.1374332346        0.3282426122
 H          8.9947060707        1.3150225233       -2.1004923704
 H         10.5810961085        0.4120347492       -0.4786586364
  89
  -139.019459236400       1.957200707956470E-002 !
 C          9.5208467799       -1.9956940433        2.6672389333
 C          9.4573528966       -0.7042872618        2.3569914316
 C          8.8313624949       -0.1191698603        1.1808250582
 C          8.8223589673        1.2712448420        1.0387338752
 C          8.2351468198        1.8757969035       -0.0534219485
 C          7.6433924961        1.1070048680       -1.0487268759
 C          7.0120316771        1.7605526043       -2.2539127390
 O          5.9421528123        1.0209336866       -2.8068497650
 C          4.8255429642        0.8102905843       -2.0693469646
 C          4.5994022715        1.3602094774       -0.7980927697
 C          3.4337588068        1.0911410179       -0.1042450627
 C          2.4904363756        0.2535764498       -0.6823089811
 C          2.6903718679       -0.2755826937       -1.9886412887
 C          3.8603223799       -0.0011773372       -2.6735204510
 C          1.5169230082       -1.0371649130       -2.2990560672
 C          1.1256440154       -1.7858590070       -3.4009900098
 C         -0.0935150911       -2.4401193798       -3.3589837674
 C         -0.9117096040       -2.3668561071       -2.2353255254
 C         -0.5417791302       -1.6250672140       -1.1249221783
 C          0.6634885906       -0.9437678938       -1.1684935830
 N          1.2719692283       -0.1606697611       -0.2038036646
 C          0.7549437740        0.1608770861        1.0511281195
 C          1.5380054500        0.0338383831        2.1808765597
 C          1.0487137477        0.3661996076        3.4430110592
 C         -0.2762207988        0.7969662415        3.5793747012
 C         -1.0885838126        0.9128728659        2.4777756151
 N         -2.4346846614        1.2821351813        2.6014497085
 C         -2.9259963882        2.4657396242        3.1090068711
 C         -2.2450754247        3.5070989506        3.7173305986
 C         -2.9846453057        4.6013810911        4.1390491826
 C         -4.3627681948        4.6559323221        3.9521282851
 C         -5.0455019888        3.6252132273        3.3272943298
 C         -4.3276299314        2.5187415435        2.8961748555
 C         -4.6822673780        1.3021051252        2.2182524074
 C         -5.8611595207        0.7867914219        1.7142067453
 C         -5.8408934083       -0.4710076751        1.0990811301
 O         -7.0222337687       -0.8727246127        0.5698843984
 C         -7.0948095803       -2.0993489138       -0.1257312233
 C         -6.1657268763       -2.2217932900       -1.3111682800
 C         -5.8235896491       -3.4843887937       -1.7846954949
 C         -4.9664356718       -3.6270675928       -2.8559796491
 C         -4.4086754064       -2.5093573195       -3.4801162214
 C         -3.4846766297       -2.6045431790       -4.6030199553
 C         -3.2085782974       -3.6953719274       -5.3082827207
 C         -4.7540109230       -1.2476885114       -2.9932321014
 C         -5.6301921522       -1.1036276572       -1.9363056991
 C         -4.6612981004       -1.2291754693        1.0605709788
 C         -3.4751112841       -0.7139468713        1.5409072589
 C         -3.4764137521        0.5656117645        2.0772721572
 C         -0.5908716429        0.6491793274        1.1591128437
 C         -1.3396654276        0.9939250169        0.0469843339
 N         -1.9759641754        1.3085312307       -0.8715427891
 C          7.6552601146       -0.2772916073       -0.9231807800
 C          8.2340968920       -0.8807314754        0.1733502934
 H          9.0943938244       -2.7669186738        2.0492260864
 H         10.0089647102       -2.3302891040        3.5662994082
 H          9.9061540418        0.0155742524        3.0310876799
 H          9.2791677120        1.8837091152        1.8033969165
 H          8.2351816606        2.9538570846       -0.1378718590
 H          7.7425551860        1.8200915429       -3.0693528791
 H          6.6892105369        2.7823111148       -2.0109038512
 H          5.3360392341        1.9993833394       -0.3422509057
 H          3.2657583480        1.5372110274        0.8632647284
 H          4.0473653822       -0.3937568811       -3.6596018602
 H          1.7630149543       -1.8541486239       -4.2691453307
 H         -0.4199906058       -3.0232850282       -4.2066162660
 H         -1.8539690915       -2.8916232848       -2.2302403299
 H         -1.1831110195       -1.5837240934       -0.2612965134
 H          2.5360106885       -0.3667922557        2.0832528739
 H          1.6731206375        0.2526467872        4.3130554087
 H         -0.6811549447        1.0005008696        4.5596686088
 H         -1.1748264309        3.4688196642        3.8515707629
 H         -2.4808530790        5.4270059053        4.6180667620
 H         -4.9064477390        5.5231554656        4.2953817593
 H         -6.1123952523        3.6793478197        3.1753097128
 H         -6.7905935662        1.3300505986        1.7655523027
 H         -8.1363653775       -2.1500477465       -0.4646297522
 H         -6.9233534347       -2.9367803384        0.5667292131
 H         -6.2316761354       -4.3623853492       -1.3028382445
 H         -4.7125107880       -4.6187692779       -3.1973986725
 H         -3.0029504012       -1.6711079006       -4.8647103717
 H         -2.5155667153       -3.6686590770       -6.1317751784
 H         -3.6649954984       -4.6503641352       -5.1105556460
 H         -4.3260120066       -0.3674775593       -3.4486344673
 H         -5.8840099972       -0.1155250607       -1.5844808608
 H         -4.6626348021       -2.2172243003        0.6335178911
 H         -2.5701800740       -1.2991572756        1.5051797139
 H          7.2009813642       -0.8824220320       -1.6944769365
 H          8.2268643099       -1.9570826127        0.2436867030
