  72
       -111.49327236
 C         -8.1109035402       -1.0524628925        0.7385438419
 C         -7.2398828178       -0.0022781376        0.0212914095
 C         -8.1322975876        1.0413902219       -0.6789309536
 C         -6.3864462899        0.7045356590        1.0523965831
 C         -6.9909166793        1.4019005217        2.0892944241
 C         -6.2532122248        2.0657750405        3.0524823769
 C         -4.8674813500        2.0439292822        2.9904474347
 C         -4.2391588473        1.3607917092        1.9750303246
 C         -4.9831489266        0.6820715090        0.9978948642
 N         -4.3244523746        0.0050623258       -0.0042833675
 C         -2.8978932001        0.0025234134       -0.0120738380
 C         -2.1988753751        0.9650402343       -0.7377365998
 C         -0.8234698491        0.9622792885       -0.7388628103
 C         -0.0941105325       -0.0017238706       -0.0215651298
 C          1.3552520232       -0.0031165404       -0.0238356001
 C          2.0860730246        1.1856388556       -0.1980158925
 C          3.4729125784        1.1621893387       -0.1814713485
 C          4.2907592033        2.3569672030       -0.2877194988
 C          5.6514614811        2.2757112666        0.0563948458
 C          6.4745794945        3.3695956507       -0.0266837896
 C          5.9635358170        4.5985850484       -0.4685491543
 C          6.7957900991        5.7261580411       -0.5550884049
 N          7.4738970387        6.6522363185       -0.6391187628
 C          4.6104417242        4.6908114818       -0.8253001048
 C          3.7936769434        3.5902415674       -0.7335470780
 N          4.1054634060       -0.0047881368       -0.0123981953
 C          3.4704741789       -1.1742141396        0.1470690616
 C          4.2881142340       -2.3656327321        0.2658217536
 C          3.7752136558       -3.6253447693        0.6107088851
 C          4.5978024047       -4.7194639139        0.7195356553
 C          5.9750143771       -4.5963410933        0.4835468105
 C          6.8139603044       -5.7161987951        0.5937439781
 N          7.4972783650       -6.6384032778        0.6803831298
 C          6.5018609190       -3.3423354731        0.1404897257
 C          5.6721121109       -2.2559180192        0.0375720823
 C          2.0828300041       -1.1918583397        0.1512038431
 C         -0.8215545169       -0.9640637222        0.6999809265
 C         -2.1967852875       -0.9626364971        0.7081399087
 C         -4.9972152736       -0.6739768280       -0.9956085196
 C         -4.2669891565       -1.3482420798       -1.9860834063
 C         -4.9095241000       -2.0339610070       -2.9908386763
 C         -6.2960200058       -2.0630675246       -3.0284855634
 C         -7.0201321165       -1.4033770568       -2.0521899315
 C         -6.4011434510       -0.7031802636       -1.0257807332
 H         -7.4771466101       -1.7844367864        1.2357202611
 H         -8.7451769538       -0.5841001595        1.4856205933
 H         -8.7484229339       -1.5750184028        0.0312428810
 H         -8.7763908739        0.5684984138       -1.4147544674
 H         -7.5135503389        1.7788312274       -1.1868917474
 H         -8.7610919788        1.5582194163        0.0403887210
 H         -8.0679342640        1.4320094509        2.1527899076
 H         -6.7557974779        2.5978037537        3.8450029077
 H         -4.2789362707        2.5597812283        3.7332068915
 H         -3.1616855813        1.3437053243        1.9238098106
 H         -2.7480222066        1.7062319506       -1.3002241143
 H         -0.2997283596        1.6988008147       -1.3284250152
 H          1.5741957950        2.1314363124       -0.2619295888
 H          6.0353476894        1.3257638014        0.3971671290
 H          7.5178808595        3.2969236852        0.2443149890
 H          4.2205474038        5.6361671807       -1.1742086080
 H          2.7592993577        3.6855319205       -1.0275752633
 H          2.7210537527       -3.7498109134        0.8067708007
 H          4.1939288429       -5.6848103413        0.9887607540
 H          7.5629676609       -3.2453227668       -0.0382916572
 H          6.0675311483       -1.2865127370       -0.2270475393
 H          1.5669302205       -2.1353097510        0.2163827322
 H         -0.2962540539       -1.7018268087        1.2866064884
 H         -2.7443799140       -1.7018286965        1.2747470395
 H         -3.1888870518       -1.3256266697       -1.9535249641
 H         -4.3315253878       -2.5462760456       -3.7441967421
 H         -6.8097135930       -2.5975371239       -3.8122150984
 H         -8.0979478182       -1.4393382135       -2.0966041381
