  34
        -60.18430342
 C         -3.5196185650       -3.2593408122       -0.4026475752
 C         -2.1574298455       -3.4983989417       -0.2998205215
 C         -1.2725935250       -2.4536425697       -0.1211838954
 C         -1.7305554614       -1.1379377260       -0.0293878935
 C         -3.1083237408       -0.9039189023       -0.1920717846
 C         -3.9906933284       -1.9599210499       -0.3633963385
 O         -3.6347248911        0.3526152423       -0.2200229409
 C         -2.7817870576        1.4036806980       -0.0607979144
 C         -3.3337143349        2.6752285932       -0.0849854171
 C         -2.5301300160        3.7838434283        0.1137885999
 C         -1.1787051267        3.6158194489        0.3722532376
 C         -0.6208282567        2.3523822802        0.4023602672
 C         -1.4023522327        1.2234745298        0.1459509070
 N         -0.8713133358       -0.0603243141        0.1493130056
 C          0.5079172681       -0.2478127881        0.3172284053
 C          0.9907095394       -1.0720512290        1.3277140107
 C          2.3507042700       -1.2635663381        1.5076874253
 C          3.2545519190       -0.6480076768        0.6226608822
 N          4.5651841653       -0.7769308351        0.6113627028
 S          5.1673355059        0.1864246289       -0.6268461292
 N          3.7311543459        0.7388020202       -1.1822317827
 C          2.7510066881        0.2170052332       -0.4284846400
 C          1.3933367550        0.4144121513       -0.5804214563
 H         -4.2100992284       -4.0770592162       -0.5329300687
 H         -1.7775280937       -4.5056269993       -0.3656297938
 H         -0.2141074111       -2.6491698669       -0.0658986894
 H         -5.0390900737       -1.7345031153       -0.4745576464
 H         -4.3942104865        2.7679424744       -0.2543612418
 H         -2.9633713003        4.7709082869        0.0902452272
 H         -0.5528812743        4.4729158414        0.5641231101
 H          0.4257456727        2.2318913957        0.6298787703
 H          0.2912623441       -1.5278475784        2.0135803363
 H          2.7267725716       -1.8460058921        2.3321601380
 H          1.0059441995        0.9783039771       -1.4135832608
