  34
  -59.9878759025000       0.534070043957202      !
 C         -3.5196185650       -3.2593408122       -0.4026475752
 C         -2.1574298455       -3.4983989417       -0.2998205215
 C         -1.2725935250       -2.4536425697       -0.1211838954
 C         -1.7305554614       -1.1379377260       -0.0293878935
 C         -3.1083237408       -0.9039189023       -0.1920717846
 C         -3.9906933284       -1.9599210499       -0.3633963385
 O         -3.6347248911        0.3526152423       -0.2200229409
 C         -2.7817870576        1.4036806980       -0.0607979144
 C         -3.3337143349        2.6752285932       -0.0849854171
 C         -2.5301300160        3.7838434283        0.1137885999
 C         -1.1787051267        3.6158194489        0.3722532376
 C         -0.6208282567        2.3523822802        0.4023602672
 C         -1.4023522327        1.2234745298        0.1459509070
 N         -0.8713133358       -0.0603243141        0.1493130056
 C          0.5079172681       -0.2478127881        0.3172284053
 C          0.9907095394       -1.0720512290        1.3277140107
 C          2.3507042700       -1.2635663381        1.5076874253
 C          3.2545519190       -0.6480076768        0.6226608822
 N          4.5651841653       -0.7769308351        0.6113627028
 S          5.1673355059        0.1864246289       -0.6268461292
 N          3.7311543459        0.7388020202       -1.1822317827
 C          2.7510066881        0.2170052332       -0.4284846400
 C          1.3933367550        0.4144121513       -0.5804214563
 H         -4.2100992284       -4.0770592162       -0.5329300687
 H         -1.7775280937       -4.5056269993       -0.3656297938
 H         -0.2141074111       -2.6491698669       -0.0658986894
 H         -5.0390900737       -1.7345031153       -0.4745576464
 H         -4.3942104865        2.7679424744       -0.2543612418
 H         -2.9633713003        4.7709082869        0.0902452272
 H         -0.5528812743        4.4729158414        0.5641231101
 H          0.4257456727        2.2318913957        0.6298787703
 H          0.2912623441       -1.5278475784        2.0135803363
 H          2.7267725716       -1.8460058921        2.3321601380
 H          1.0059441995        0.9783039771       -1.4135832608
  34
  -59.9877469171000       0.465929956042798      !
 C         -3.5570567538       -3.2590145213        0.1681150054
 C         -2.2019642795       -3.5164796161        0.0283902725
 C         -1.3003966854       -2.4798605032       -0.1127076590
 C         -1.7346752391       -1.1535319000       -0.1327198813
 C         -3.1064782444       -0.9036701254        0.0569825384
 C         -4.0045843181       -1.9510807988        0.1965364145
 O         -3.6136165977        0.3583064154        0.1474140105
 C         -2.7562165407        1.4023297228       -0.0311677709
 C         -3.2924996605        2.6801039388        0.0016644041
 C         -2.4791560374        3.7782580566       -0.2158067309
 C         -1.1347519607        3.5945822106       -0.4996285625
 C         -0.5916609821        2.3250091276       -0.5335433314
 C         -1.3830431594        1.2068205470       -0.2603863309
 N         -0.8613483385       -0.0803126472       -0.2654325317
 C          0.5277273722       -0.2563808917       -0.3391191613
 C          1.1008734293       -1.0579120991       -1.3189526641
 C          2.4739929146       -1.2350853432       -1.3854609788
 C          3.2938557908       -0.6277461124       -0.4170320962
 N          4.6003238556       -0.7458896253       -0.2974570954
 S          5.0871852996        0.2044770056        0.9996850998
 N          3.6045960406        0.7397609585        1.4381369936
 C          2.6962889156        0.2201789395        0.5978471761
 C          1.3296375475        0.4079094128        0.6337893464
 H         -4.2602195272       -4.0697709085        0.2715679555
 H         -1.8400406300       -4.5324302224        0.0353908923
 H         -0.2467467466       -2.6923012610       -0.1892619847
 H         -5.0468906344       -1.7123798358        0.3336963374
 H         -4.3479875286        2.7868284899        0.1925975902
 H         -2.8999749546        4.7704681219       -0.1849619762
 H         -0.5029687918        4.4443375524       -0.7042386618
 H          0.4500654515        2.1892642092       -0.7747915723
 H          0.4685130985       -1.5038791275       -2.0728549438
 H          2.9243797687       -1.8010242163       -2.1838213573
 H          0.8678189663        0.9673068832        1.4313103532
