  55
        -92.57199010
 C          6.9055730545       -1.4006516207        1.6634364583
 C          6.0560768342       -2.4898223517        1.5204591929
 C          4.7513655258       -2.2769730030        1.1248620448
 C          4.3354727618       -0.9655843881        0.8702217287
 C          2.9601082226       -0.7077508747        0.4633260257
 N          1.9927257732       -1.4677424521        0.9610727418
 C          0.7066930821       -1.1949423494        0.7370903447
 C         -0.3239643224       -1.9851359352        1.2451561236
 C         -1.6509273094       -1.6384423427        1.0468274524
 C         -1.9732399551       -0.4966635736        0.3276766953
 N         -3.3340747590       -0.1450112504        0.1368187784
 C         -4.1646058548       -0.9434412143       -0.6376557932
 C         -3.6917159183       -2.0593858879       -1.3220862633
 C         -4.5483849168       -2.8355727939       -2.0833801042
 C         -5.8887715132       -2.5097563934       -2.1822512923
 C         -6.3726282641       -1.3884336240       -1.5266291011
 C         -5.5220652145       -0.6066942436       -0.7653279182
 O         -6.0597589488        0.4987373383       -0.1616204708
 C         -5.2247279616        1.2803031951        0.5918596360
 C         -5.7792701843        2.3913073361        1.2019481017
 C         -4.9954550701        3.2142526266        1.9954015521
 C         -3.6589160838        2.9136086508        2.1829926245
 C         -3.0967835574        1.8037199187        1.5759888274
 C         -3.8637708680        0.9768633519        0.7604030870
 C         -0.9686055094        0.3078652694       -0.2139541299
 C          0.3688869535       -0.0185752502       -0.0300342868
 N          1.3611272587        0.6960333000       -0.5763159227
 C          2.6296956950        0.3641241244       -0.3938305413
 C          3.6610515892        1.0994136725       -1.1207525034
 C          3.5181684303        2.4729184674       -1.3372335558
 C          4.5069631491        3.1351567040       -2.0370629565
 C          5.5962402126        2.4166068825       -2.5104373974
 C          5.6270630544        1.0499015645       -2.2718879421
 N          4.6912426138        0.4111921022       -1.6031839009
 N          5.1462618816        0.0753841856        1.0391713127
 C          6.3878518140       -0.1368707889        1.4180950144
 H          7.9335344835       -1.5264942670        1.9648075097
 H          6.4118780474       -3.4916715926        1.7153003372
 H          4.0496559164       -3.0865400495        1.0032747652
 H         -0.0637232132       -2.8591972481        1.8197912070
 H         -2.4391686059       -2.2509573448        1.4580595321
 H         -2.6454975347       -2.3122125931       -1.2579491976
 H         -4.1585687433       -3.6962097723       -2.6040961750
 H         -6.5580860097       -3.1147454072       -2.7732501147
 H         -7.4091078024       -1.0988957308       -1.5957895124
 H         -6.8272846216        2.5924107248        1.0439909703
 H         -5.4345773459        4.0784491817        2.4676139325
 H         -3.0434486932        3.5403111620        2.8094556413
 H         -2.0567293173        1.5691362042        1.7362200087
 H         -1.2211233901        1.1756788881       -0.8023379269
 H          2.6487777064        2.9823943873       -0.9535187622
 H          4.4334219927        4.1990364780       -2.2129101386
 H          6.3928462866        2.8991273597       -3.0549985945
 H          6.4395192392        0.4346427455       -2.6379177980
 H          6.9961251531        0.7512132059        1.5353774596
