55
 energy: -92.625001820666 gnorm: 0.000054950934 xtb: 6.7.1 (edcfbbe)
C            6.81888990717570       -1.13273787049715       -1.79140301070377
C            6.08680353377601       -0.39338624226893       -2.70775472622675
C            4.77606645524375       -0.06917714495707       -2.40845329165845
C            4.25016896728276       -0.49183806435969       -1.18907550697488
C            2.86758958889191       -0.17236993951442       -0.81893304643502
N            1.95021312884725       -0.20705195966180       -1.75386670133306
C            0.66380534970720       -0.05829264978404       -1.38980097798801
C           -0.35619753144990       -0.06242984521102       -2.36269868034189
C           -1.66455220078421       -0.01624854620211       -1.97715384450426
C           -2.01676105632873        0.03330430282399       -0.60858082884427
N           -3.38061183155917        0.04077588584005       -0.25724208871063
C           -4.20863741997391        1.08264940233703       -0.68272416559517
C           -3.71139141950331        2.19817950493111       -1.34511841187590
C           -4.55867409322575        3.21646805351843       -1.75477637573148
C           -5.91242855432898        3.14425430912464       -1.49632633332056
C           -6.41910720677921        2.05469203873616       -0.80347663634615
C           -5.57860150396228        1.03670170033487       -0.39296747499659
O           -6.14603464934713        0.00672328022419        0.31359450597036
C           -5.31301452441468       -0.98760200412956        0.76279005631250
C           -5.89720881425985       -2.00673744391608        1.49206961716277
C           -5.13162692349030       -3.06790439253715        1.95107944996769
C           -3.78289979046829       -3.10675748482965        1.66160103927407
C           -3.19125086272527       -2.08505777701788        0.93459030566466
C           -3.93825398517131       -1.00143080795127        0.49044632220148
C           -1.04105258934731        0.06711220292484        0.35984190227975
C            0.31276282859805        0.04036849474818       -0.01375774343828
N            1.27313214421030        0.17554075847663        0.92313139643562
C            2.52336107051490        0.12639224305907        0.53877147448114
C            3.56557074886541        0.43205985966566        1.52551788431062
C            3.45084157701618       -0.01213512933980        2.84116486082759
C            4.46292007436777        0.29877855709885        3.73117324474266
C            5.54066587977980        1.04706961931159        3.28342638587526
C            5.54594747827410        1.45978242496305        1.95850456819694
N            4.59087355694840        1.16558671213341        1.09971606238063
N            4.94682797794431       -1.21708753322594       -0.31734062923492
C            6.19297658687146       -1.52356545461768       -0.61616837672161
H            7.84499508735139       -1.40514479438177       -1.98433938534594
H            6.53205533876058       -0.07686365066279       -3.64030205550951
H            4.15999611513777        0.50165754875518       -3.08413942440070
H           -0.07372317407562       -0.12599087641792       -3.40176753158995
H           -2.45591433954552       -0.03930925459138       -2.71209252001497
H           -2.65241340550441        2.27622338774790       -1.53588484664042
H           -4.14607727007059        4.06832483991307       -2.27300892568976
H           -6.57625796438905        3.93189171800952       -1.81593228743602
H           -7.46819050502095        1.97725038136550       -0.56672890701995
H           -6.95708487133130       -1.95359179412678        1.68314015429054
H           -5.59580644131619       -3.85773988573687        2.52016247304241
H           -3.17597035081836       -3.93421914973848        1.99536111831733
H           -2.13929586236558       -2.13872897709084        0.70317949138001
H           -1.29073976579771        0.13065553039295        1.40763539011785
H            2.58870957886695       -0.58850682469166        3.13519331737211
H            4.41327258817822       -0.03457604658706        4.75804800049790
H            6.35237423076521        1.30990092055541        3.94401997279794
H            6.35503454615311        2.06063338522539        1.56247170609978
H            6.71392056781832       -2.11649451815320        0.12518303464990
