55
 energy: -92.625029840879 gnorm: 0.000022928538 xtb: 6.7.1 (edcfbbe)
C            6.88995991115378       -1.36103998268191        1.63400109505338
C            6.10265291285897       -2.47435823291194        1.38321566128832
C            4.78528636160881       -2.28826944218080        1.00562494104359
C            4.30862831467427       -0.98464962345888        0.88157060062147
C            2.92194399459585       -0.73245979638609        0.47470695944171
N            1.98492261510342       -1.51550365414917        0.95029558753806
C            0.70279268641078       -1.20844729788101        0.68249712387748
C           -0.33871306275438       -2.03050251695384        1.15854726663786
C           -1.63868822290832       -1.66598594310399        0.96014838978082
C           -1.96210415011599       -0.47010123304308        0.27788059958444
N           -3.31732133525902       -0.12358142650865        0.11948882031745
C           -4.18235021408959       -0.97705840826499       -0.57126127710813
C           -3.72991039098011       -2.11303566456430       -1.23131772253775
C           -4.61369629022870       -2.94264112351706       -1.90446617666089
C           -5.96032787756166       -2.64300081029756       -1.94341686834215
C           -6.42212205903064       -1.49119510709783       -1.32406462729481
C           -5.54481707191769       -0.66074078412114       -0.65155659773716
O           -6.06930862568866        0.47659818904526       -0.09229027638656
C           -5.20014389677010        1.32972357267753        0.54069466940267
C           -5.74172690260606        2.48381340028054        1.07620140245650
C           -4.93940962371887        3.38002452777799        1.76582277972637
C           -3.59731942172976        3.10271098724860        1.92809966691127
C           -3.04839797729010        1.94938470130779        1.38876712292964
C           -3.83166380656485        1.05563665979273        0.66938359127421
C           -0.96530346003702        0.33874389248692       -0.21594801159985
C            0.38006126621861       -0.02111732627699       -0.03278937867527
N            1.35706112634121        0.72490646527259       -0.58799539443659
C            2.59927046686521        0.36405873260043       -0.38741378405602
C            3.65556711665838        1.08911959342880       -1.10401022391323
C            3.58882472569189        2.47267814450985       -1.25407626302617
C            4.61393586952557        3.11165856480820       -1.92782325659543
C            5.65586765636521        2.35139066128232       -2.43596516693288
C            5.61320342205380        0.97653253534721       -2.25274211956186
N            4.64573415702210        0.35681852288052       -1.60739988815916
N            5.05856230230936        0.08372036900235        1.14023435549471
C            6.31053010452417       -0.10683438359605        1.50448305831486
H            7.92324836112654       -1.46130335183784        1.92825939227522
H            6.51067811791200       -3.47029170359871        1.48181913452982
H            4.12742092359116       -3.11707840495819        0.79993987334201
H           -0.07795926636186       -2.92944026607250        1.69465381647040
H           -2.44491077288706       -2.27680121516965        1.33940924555763
H           -2.67716750915147       -2.34861429901430       -1.22646171390130
H           -4.23506783272853       -3.82234189367618       -2.40167198452019
H           -6.65264379367179       -3.28746322079269       -2.46161886171868
H           -7.46400417388582       -1.21523090614190       -1.35464302508845
H           -6.79814761734305        2.65760059233159        0.94796820661008
H           -5.37018071592200        4.27858489605890        2.17833709288079
H           -2.96224561152914        3.77936125517629        2.47879319784417
H           -2.00133764053180        1.74015551816915        1.53966315549864
H           -1.19166214494269        1.24265131564852       -0.75994513983912
H            2.75307665015063        3.01359694534152       -0.84062537131258
H            4.60179545725386        4.18465161150181       -2.05669580495122
H            6.47649752740322        2.80994915409780       -2.96571181684843
H            6.39246707031685        0.33504439172410       -2.64479892170631
H            6.87597223381592        0.79451814578483        1.70541014345245
