55
 energy: -92.577921198343 gnorm: 0.000072423584 xtb: 6.7.1 (edcfbbe)
C            6.91599898373364       -1.43414834108990        1.63067925162604
C            6.06075676833818       -2.51772393538585        1.48373653395672
C            4.75308148524352       -2.29364475238094        1.10205343160767
C            4.34236935360998       -0.97792445675372        0.86613675294916
C            2.96293469463567       -0.70805156289407        0.47684464986339
N            1.99693158979843       -1.46712435083272        0.98243801886785
C            0.70755253236948       -1.19411148099352        0.77013990683828
C           -0.31936325610582       -1.98103902718673        1.28689442426876
C           -1.64771354211894       -1.64060172266984        1.08785430044158
C           -1.97457138327911       -0.50606495829254        0.35900739595925
N           -3.33500822014855       -0.15944246137535        0.16225273483862
C           -4.15854857516918       -0.95649108071230       -0.62316190130278
C           -3.68315415775785       -2.08010028406717       -1.29178634233663
C           -4.53217882034409       -2.85304078400137       -2.06579926609129
C           -5.86671498769708       -2.51553563045764       -2.19229525283383
C           -6.35240160686081       -1.38626039637973       -1.55136470447367
C           -5.50969705015710       -0.60830123153177       -0.77817286571671
O           -6.04940591373705        0.50648776015199       -0.19179299191665
C           -5.21846878503382        1.29156414944550        0.56412845139307
C           -5.77127721440136        2.41772952348501        1.14656866463621
C           -4.99317007980744        3.24518178781217        1.94150295395982
C           -3.66443244563681        2.93252096496170        2.15905438368336
C           -3.10376541011235        1.80719552391354        1.57854873237187
C           -3.86433114244577        0.97734538665114        0.76090061728191
C           -0.97263957572831        0.29671790604126       -0.18744979626120
C            0.36543245019621       -0.02201445093467       -0.00124781975019
N            1.35608215163529        0.69723647798396       -0.54475140964741
C            2.62804130119608        0.36764563506136       -0.36865730879622
C            3.65134700762945        1.11208645928577       -1.09993164318825
C            3.50479508907826        2.48721118374992       -1.29933261979256
C            4.48037739562274        3.15654757969421       -2.01199533474192
C            5.55956119059852        2.44194474269280       -2.51259447041137
C            5.59596833744486        1.07354386453396       -2.28487427460945
N            4.67254295314927        0.42750148157123       -1.60518083526504
N            5.15850984810589        0.05813191115457        1.03674412261683
C            6.40291656968759       -0.16544135457283        1.40164447997778
H            7.94589644837866       -1.56807843388297        1.92234198668188
H            6.41282651385915       -3.52335894636752        1.66555210541383
H            4.04713921085359       -3.09924692723399        0.97803354784546
H           -0.05584787374815       -2.85129943710079        1.86603181628171
H           -2.43329893394001       -2.25336196915669        1.50354526066421
H           -2.64073511805952       -2.34300204104374       -1.20634654251261
H           -4.14014134296950       -3.72142135304961       -2.57223614815709
H           -6.53058239625740       -3.11815558551657       -2.79161766071390
H           -7.38463986236161       -1.08806863541979       -1.64152730971240
H           -6.81405661652859        2.62622842342732        0.96852182463928
H           -5.43126415995675        4.12213964604725        2.39107850676018
H           -3.05297688847097        3.56214577406228        2.78669968331395
H           -2.06930601809012        1.56440138208652        1.76180907167006
H           -1.22825869624713        1.16130396551673       -0.77930770167520
H            2.64376985165624        2.99452150146433       -0.89442068503616
H            4.40297937789940        4.22190305825659       -2.17738797052016
H            6.34466183780966        2.92908587046583       -3.06947600350448
H            6.40186139108587        0.46198768905745       -2.67074151812016
H            7.01696338587921        0.71814169032097        1.52298014762356
