55
 energy: -92.577921506102 gnorm: 0.000038683839 xtb: 6.7.1 (edcfbbe)
C            6.91802879282264       -1.43932974611686        1.64026384724496
C            6.05919110638068       -2.52113220686274        1.50217519384225
C            4.75166174674756       -2.29554913387891        1.12052083964145
C            4.34515342161595       -0.98033231158894        0.87564561050818
C            2.96577107968338       -0.70840433847044        0.48582516019740
N            1.99698669176369       -1.45167093322724        1.00848245101109
C            0.70849139302033       -1.17573325131674        0.79360664633412
C           -0.32151307340956       -1.94544174833486        1.32945294359999
C           -1.64852072570842       -1.60341401718965        1.12408579788364
C           -1.97109835097570       -0.48518860638679        0.36846338600461
N           -3.32991475956716       -0.13898741312683        0.16170901285754
C           -4.15840741793534       -0.95837268262401       -0.59549594167281
C           -3.69037402252382       -2.10782695444540       -1.22425541856822
C           -4.54455949286544       -2.90293927740912       -1.96962919878269
C           -5.87717534612486       -2.56240127855108       -2.10741447893474
C           -6.35531004834059       -1.40764377449710       -1.50761899542638
C           -5.50733549660946       -0.60755703231618       -0.76327516319598
O           -6.04000927992902        0.53145603327261       -0.21859718279524
C           -5.20497272752629        1.33671482526484        0.51102232378462
C           -5.75157708079725        2.48580801476431        1.05316212418035
C           -4.96981507007887        3.33485919074003        1.82122087663565
C           -3.64389599750532        3.02059293639223        2.05307580515715
C           -3.08941340550437        1.87251553703121        1.51251209089774
C           -3.85326547419051        1.02065755356514        0.72094841635158
C           -0.96573156535882        0.30091764247590       -0.19582807036205
C            0.37116224783565       -0.01853160728264       -0.00207818254413
N            1.36457805182150        0.68565165294982       -0.55967108317223
C            2.63550639281019        0.35345952241070       -0.37858838189392
C            3.66156959775370        1.08080669999796       -1.12257026378818
C            3.51785314290770        2.45203586733890       -1.34974677709855
C            4.49641066529313        3.10556097479155       -2.07279821680244
C            5.57587747571750        2.37950297154240       -2.55614535178713
C            5.60954238477106        1.01589897330762       -2.30102732553412
N            4.68324549114805        0.38487479276506       -1.61117565470410
N            5.16473530810452        0.05428546920442        1.03725622191848
C            6.40888067486016       -0.17067541253100        1.40241580701151
H            7.94782554828423       -1.57446387673915        1.93177723549138
H            6.40818858225567       -3.52659211689930        1.69077608018067
H            4.04325480326424       -3.09998689532202        1.00316092127523
H           -0.06152902010487       -2.80353477973023        1.92803199885512
H           -2.43630219591125       -2.20252915686296        1.55521750299585
H           -2.64949042842227       -2.37390780645407       -1.13069293329602
H           -4.15796836861691       -3.79124776719417       -2.44471399205023
H           -6.54518089247240       -3.18232817393120       -2.68404724175870
H           -7.38562652722387       -1.10618077949038       -1.60827301039697
H           -6.79255632915980        2.69482271920728        0.86543815702126
H           -5.40300387167632        4.22965309831834        2.23930167430557
H           -3.02976653012577        3.66683216336054        2.66089599386749
H           -2.05718435377017        1.62920834936738        1.70721207197734
H           -1.21772649548774        1.15254282966781       -0.80771762445927
H            2.65661728131380        2.96862524429158       -0.95721064231706
H            4.42119691441424        4.16756344632073       -2.25939661247067
H            6.36320897288226        2.85425366085427       -3.12052164919781
H            6.41559075042312        0.39558778018212       -2.67232814159743
H            7.02600751455053        0.71173921131237        1.51635385679383
