107
 energy: -152.463708039189 gnorm: 0.000070986312 xtb: 6.7.1 (edcfbbe)
C           -9.90317073622841        2.68075081762527       -0.47579690917412
C           -8.67318997842026        3.59301535994766       -0.51701289851466
C           -8.80729713309716        4.62504106666488        0.61325930723537
C           -8.65586873700736        4.30925540436913       -1.87595043390595
C           -7.37015672089032        2.82836786829911       -0.33766210622352
C           -6.15983727527947        3.53637708904673       -0.35369785320938
C           -4.93222742492514        2.92869839682219       -0.18267260677628
C           -4.90408875207687        1.55711482964944        0.02758743211002
C           -6.10694582766964        0.81514906100670        0.00382938217401
C           -7.32715098931712        1.45098339740206       -0.17077825982777
C           -5.73688112080148       -0.56530553926268        0.16653811452463
C           -6.47234489314217       -1.73985321343210        0.22408955356802
C           -5.82355260961365       -2.95140860595176        0.41922788031160
C           -6.56377742163779       -4.28000121288399        0.46803147982432
C           -6.34255747479384       -4.93399541608990        1.84037000413057
C           -8.07237464640852       -4.12256735507199        0.25357329684273
C           -6.01930360754870       -5.19715173777297       -0.63808158308882
C           -4.43139943299704       -2.94312217175434        0.58758648999837
C           -3.67553504598717       -1.78929620802436        0.53400554257097
C           -4.32907006981287       -0.58954891065642        0.28904203929037
N           -3.83301475069835        0.69905869021837        0.20203379460647
C           -2.49517317667922        1.06119940811349        0.26557575731226
C           -2.07895306851415        2.18258170220798        1.00991626015754
C           -0.76283455728297        2.53807587165968        1.06732190486978
C            0.25266699945329        1.79466574882108        0.39576831575665
C            1.62323660689613        2.14527838510691        0.46283736079462
C            2.05533748771386        3.46958382314612        0.80312654607908
C            3.36660290695638        3.83539846556442        0.81879361075825
C            4.36492622458106        2.87875076055858        0.52695407132825
C            3.95218606425092        1.54171454571768        0.23718074849248
C            2.64879176254807        1.18406843778709        0.18452514568980
C            5.17655336237776        0.65886653598308        0.01580101175843
C            6.29584714281099        1.67064367168625        0.13116868385950
C            7.64249055765942        1.46783397973051       -0.01610224239601
C            8.51075003478629        2.54902396018675        0.15272819490347
C            8.01324409404218        3.81193985617990        0.46998844781863
C            6.66179915480650        4.03175234810246        0.62233107196297
C            5.77480394874432        2.95581851662924        0.45089141793864
C            5.07970893590262        0.01986617834937       -1.34434007547353
C            5.38053002999560        0.75835453488493       -2.47797657696458
C            5.18132517639410        0.24063322423615       -3.74556756145947
C            4.64769376067332       -1.03036797661540       -3.88433144898437
C            4.34618010660863       -1.78428881218988       -2.76841124693893
C            4.57627357176651       -1.28126955494248       -1.48452344903458
N            4.30659814415161       -2.05119771179190       -0.36402786112476
C            3.66277164635325       -3.31351048964070       -0.50926310603861
C            4.36468015219044       -4.42034989938126       -0.97231811284141
C            3.71874971420279       -5.63718551304925       -1.10402858725024
C            2.37831217968952       -5.75419921587305       -0.77329888073658
C            1.68144818690827       -4.65225798167540       -0.30567283904121
C            2.32049365545175       -3.43190174079141       -0.17173336110896
C            4.73307085397101       -1.66469160355270        0.89680001025036
C            4.70398051191214       -2.57218497689643        1.95976475146809
C            5.14640703425935       -2.20146026563999        3.21322927299711
C            5.63598201659663       -0.92364039217594        3.42964983947764
C            5.66826557199835       -0.02048647176050        2.38182932475763
C            5.22312799704695       -0.37127673505715        1.11681784124868
C           -0.19746588487790        0.66714149261914       -0.35457401729183
C           -1.51424812383042        0.31804356830329       -0.42018046617283
H           -9.97407025285368        2.16172166108294        0.47747579446463
H          -10.80248205294037        3.28122204069134       -0.59837521981980
H           -9.87637233206462        1.95005929896805       -1.28109638540802
H           -7.99269321322774        5.34377936976742        0.59417982318522
H           -8.79924546503305        4.12632218331165        1.58067607227659
H           -9.74392456029333        5.16967451265566        0.51328291840910
H           -9.59371119640413        4.83870719605882       -2.03090239968436
H           -8.52938787961208        3.58704767665518       -2.68032395579315
H           -7.84522990719674        5.03017117401075       -1.93579878839108
H           -6.17326071336495        4.60384453059919       -0.51141316351929
H           -4.02424850919776        3.51017912041080       -0.22922008512710
H           -8.22414246528008        0.85493120120756       -0.17865268335095
H           -7.54275600354954       -1.68493971205810        0.11894706782591
H           -6.70724120305860       -4.28184211171223        2.63174583250240
H           -5.28993542698290       -5.13289506821658        2.02152820871482
H           -6.88150531509980       -5.87765215584501        1.89509468100836
H           -8.28574696572396       -3.67907017127323       -0.71648844206897
H           -8.51759725082187       -3.50922802351550        1.03373657707588
H           -8.54641103049523       -5.10166371784339        0.28651880653157
H           -6.14924054171083       -4.72949151102800       -1.61229781200856
H           -4.96213644602677       -5.40506908831450       -0.49837829196354
H           -6.55534945458206       -6.14400674219062       -0.63569666559869
H           -3.91618654811120       -3.87294928866098        0.77309894259473
H           -2.60888851814402       -1.82635229574562        0.69385406044120
H           -2.81223354745451        2.73269351673626        1.58141949340270
H           -0.47818470805346        3.37248773025115        1.68926526019954
H            1.30461393850656        4.21946284875457        1.00314954931773
H            3.65066727767091        4.85307395081161        1.04747515751096
H            2.37701615850885        0.16034145474669       -0.02300562174339
H            8.03173970048713        0.48851317226925       -0.25914960815927
H            9.57486411933900        2.40449552552957        0.03884439908326
H            8.70582564064220        4.63277054768518        0.59783941694301
H            6.28371308880248        5.01381992921463        0.86659498228020
H            5.76729835639785        1.76008472257249       -2.35798305260135
H            5.42388225200571        0.83130442038021       -4.61586020209061
H            4.46398064473827       -1.43921878765249       -4.86696499272871
H            3.92672689581455       -2.77088031228701       -2.89003054313120
H            5.41057608196554       -4.32004634288363       -1.22338236681805
H            4.26569618952619       -6.49624144924800       -1.46302732644864
H            1.87811128676794       -6.70525621716842       -0.87758849582980
H            0.63761448462527       -4.74067696483187       -0.04408635031841
H            1.78798231258303       -2.56922173896565        0.20094676607656
H            4.33389807453161       -3.57292776711388        1.79757712234284
H            5.11258545199106       -2.91592014699469        4.02240123950518
H            5.98535013512715       -0.62892669422075        4.40755909913559
H            6.04068961576457        0.98024207456723        2.54537424685781
H            0.51579143213093        0.11135535774805       -0.94372635219744
H           -1.82523361325947       -0.50494893716377       -1.04721595179898
