107
 energy: -152.463872676401 gnorm: 0.000065315189 xtb: 6.7.1 (edcfbbe)
C           -6.27774920250914       -4.84883779963790       -2.16415196542500
C           -6.50031095856089       -4.28968870905777       -0.75061293063521
C           -5.94992443044604       -5.27567862083128        0.29119672092315
C           -8.00944982424442       -4.15422772092255       -0.52520860629755
C           -5.76664295168420       -2.96341801357408       -0.61670957245216
C           -4.37562752056191       -2.93663621244015       -0.79240941657863
C           -3.62690568412374       -1.78239470475283       -0.67939620318741
C           -4.28733753576639       -0.60285979407037       -0.36496970057337
C           -5.69321040935903       -0.59625054616430       -0.22161287974668
C           -6.42128832425747       -1.77080187763407       -0.34065209316101
C           -6.06973107724295        0.77000701378508        0.02584026144677
C           -7.28945437352858        1.38525304660617        0.26499056777683
C           -7.33725711965803        2.75047123341889        0.51201128020058
C           -8.64024937985556        3.49127382842962        0.77388323444266
C           -8.59322326730875        4.11268189080912        2.17819732090320
C           -8.81029169635863        4.59757573330374       -0.27848661347409
C           -9.86495263658898        2.57394520142976        0.70050795048643
C           -6.13222075507180        3.46720854003156        0.53598376579491
C           -4.90512814178483        2.88046083138284        0.30053677183377
C           -4.87303995642584        1.52204022502678        0.01837060134473
N           -3.79981068590437        0.68316597916983       -0.21925092232042
C           -2.46514086934321        1.05752512479870       -0.28839224141313
C           -2.06457799546009        2.20079516650860       -1.00686799814306
C           -0.74968813546459        2.55782429086999       -1.08176935916511
C            0.28008800439525        1.80143596178850       -0.44567831470172
C            1.65004615334351        2.14625654105550       -0.53998078017421
C            2.08764466920297        3.45548224201580       -0.93133906318215
C            3.40120412199787        3.80919333591927       -0.98581105379935
C            4.39875192821553        2.85776002128941       -0.67478377752909
C            3.98076214515284        1.53841981611319       -0.32114308927885
C            2.67626949331346        1.19142428267510       -0.24065563331134
C            5.20114836619332        0.66058193489573       -0.05937393627276
C            6.32659901839602        1.65202196645899       -0.25565400061901
C            7.67485991482576        1.44386775176806       -0.12827741590563
C            8.54865320299701        2.50596423287489       -0.37200515401236
C            8.05544289761790        3.75659160408483       -0.74040144928623
C            6.70274626851375        3.98202668658962       -0.87261150832954
C            5.81050882684244        2.92480787282229       -0.62882084832091
C            5.22277158335554       -0.45296773933374       -1.07591337912236
C            5.71082493772158       -0.23116433104834       -2.35382847980112
C            5.65352426159657       -1.21668797656073       -3.32386000604180
C            5.09337441322138       -2.44567619287102       -3.01567085772547
C            4.60567429754066       -2.68786119079648       -1.74751489765968
C            4.66222388745140       -1.69785799025280       -0.76276583737557
N            4.19578599980770       -1.95699603827496        0.51678774936016
C            3.44156062770268       -3.14356278362944        0.74237303161774
C            2.10004324580861       -3.16978481580602        0.38189050449213
C            1.35033428060492       -4.31272497221292        0.59850958794282
C            1.93554770293386       -5.42983960623932        1.17130579414561
C            3.27586974844977       -5.40701134266979        1.52192100976755
C            4.03202446748935       -4.26772069478185        1.30806891377488
C            4.52603055670468       -1.13199317456520        1.58108762386057
C            4.28298569586611       -1.52985332208417        2.89862549715539
C            4.64638118159578       -0.72074707561212        3.95624267280805
C            5.25583622576310        0.50137100125307        3.72399550137886
C            5.46682372201721        0.91832002576625        2.42141927519681
C            5.10441599676921        0.12385672719411        1.34555970362141
C           -0.15907667059652        0.66178167352989        0.29471969371336
C           -1.47265538616319        0.30304462571241        0.36654424841831
H           -6.64231503246606       -4.14422223182424       -2.90927570576729
H           -5.22494746257412       -5.03435496506318       -2.35809811807225
H           -6.81618930457570       -5.78677300641608       -2.28354467125778
H           -6.08527428565225       -4.87663060455892        1.29472581380712
H           -4.89087500879022       -5.46486739507598        0.13971698952107
H           -6.47813214010740       -6.22447104428763        0.22290286268369
H           -8.47876231975237       -5.13130405318590       -0.62259251190151
H           -8.45822454818473       -3.49278408997191       -1.26291982507409
H           -8.22424396494184       -3.77696833227413        0.47214842264404
H           -3.85597302773270       -3.85091575983571       -1.03450256306773
H           -2.56099337527970       -1.80161686654204       -0.84776940441216
H           -7.49087952209693       -1.73022401687827       -0.22161829970456
H           -8.18213000903681        0.78273741440124        0.26021730770232
H           -7.78472503210094        4.83297600198828        2.26797573210445
H           -8.44404841887448        3.33777631592066        2.92774549475350
H           -9.52956237702060        4.62415148986058        2.39178690957532
H           -8.82365023958150        4.16733543502215       -1.27816658328673
H           -8.00104061915114        5.32092409690822       -0.23014591376017
H           -9.74798271557597        5.12549850700074       -0.11732732046489
H           -9.95399212557787        2.11747129154026       -0.28281317810880
H           -9.81513866874450        1.79262100622533        1.45557058845716
H          -10.76514546780862        3.15787978703830        0.88208601264518
H           -6.14955862663300        4.52416803267814        0.75293577327426
H           -3.99958811147322        3.46539402127687        0.35388205936312
H           -2.80988294617338        2.76733107981184       -1.54609964695638
H           -0.48024273153374        3.40895644074307       -1.68723526897087
H            1.34151263332277        4.20516227364960       -1.14754764607705
H            3.68770166389794        4.81505383087770       -1.25948208132224
H            2.40470451753652        0.17903952354350        0.01361592662488
H            8.06079440946376        0.47439195961697        0.15588473246335
H            9.61379682497168        2.35635402412593       -0.27548690706077
H            8.75196242872340        4.56322841842164       -0.92471355194045
H            6.32793488820641        4.95434464471733       -1.15749756344727
H            6.13556047464691        0.73351715423705       -2.59025785973354
H            6.03836805029361       -1.02325459808720       -4.31365445812773
H            5.03970209500980       -3.22255917449387       -3.76391395105121
H            4.18222408123138       -3.65210304234592       -1.51119490269556
H            1.65348510494648       -2.29759766115603       -0.07280440870120
H            0.30716632330422       -4.32847384494232        0.32015401964177
H            1.34872766457540       -6.31997937082139        1.34140224624288
H            3.73607370185158       -6.27945748620381        1.96140445469171
H            5.07891486047478       -4.24126825144947        1.57337159243439
H            3.80408086060275       -2.47684756459981        3.09353979759511
H            4.45146900705728       -1.04828387393132        4.96676927234513
H            5.54704648400984        1.13430807163297        4.54843904252142
H            5.90969447245295        1.88475562372932        2.22899949157279
H            0.56017835839239        0.09729070191879        0.86746382894795
H           -1.77227050514823       -0.53741022409535        0.97600570474294
