107
 energy: -152.554645678715 gnorm: 0.000065480841 xtb: 6.7.1 (edcfbbe)
C           -9.68425890602122        2.07344166836289        0.01837388701383
C           -8.53186709283468        3.08201377433912       -0.02308440524331
C           -8.64455568434473        3.98207426931492        1.21673972841154
C           -8.68565258799416        3.92872166840142       -1.29534881406170
C           -7.16533231070354        2.40986040828372       -0.02808418534556
C           -6.01590755403197        3.21156202534871       -0.05555598582195
C           -4.73700699008964        2.69268309465483       -0.04337263624278
C           -4.59180260729562        1.31450301715755        0.00847653019918
C           -5.73202236470831        0.48385878413145       -0.00044266568280
C           -7.00760595929575        1.03358360909498       -0.01336320723187
C           -5.24925324631869       -0.87008301592237       -0.00234488086891
C           -5.88236298502952       -2.10317960076855       -0.00277855180514
C           -5.13289281880104       -3.27229809497412        0.01348845049718
C           -5.85319657059828       -4.61463991865486       -0.00440456129377
C           -6.74031386429148       -4.72422216109037        1.24483739531971
C           -6.72345641714558       -4.70049050698507       -1.26755511498680
C           -4.89262242034979       -5.80789821143011       -0.01144913709781
C           -3.73954526659982       -3.16742449029974        0.05763440149444
C           -3.08134996729963       -1.95073151523521        0.06037678042335
C           -3.83902214220739       -0.79255385322625        0.00649107733735
N           -3.45037480497855        0.53437931917448        0.01327961040578
C           -2.13220431837794        1.00688677964536        0.02708507856756
C           -1.75072292573616        2.00404896184753        0.92215770931596
C           -0.45489868745516        2.47920515044354        0.92280544009901
C            0.50022170808868        1.95583836549274        0.05341355009061
C            1.88187083013747        2.45636595339765        0.05892681356913
C            2.13395272010777        3.82766003596618        0.11132738701159
C            3.42466218088377        4.32575138933786        0.09332290134810
C            4.48337874985502        3.43351449477164        0.03641871643138
C            4.23713114087211        2.05305300984168        0.00362828532874
C            2.95333709841506        1.56125001889253        0.00475000546401
C            5.53863077702909        1.27322640725175       -0.02432125040289
C            6.55649673993732        2.39840145102320       -0.04660809815801
C            7.92989941378999        2.30656842395906       -0.09824251202312
C            8.67453839568835        3.47911413122638       -0.10688345182789
C            8.05026797316819        4.71671295749836       -0.06184986341273
C            6.66881354009247        4.81466691921093       -0.00794437019027
C            5.92108389190279        3.64818965135115       -0.00189570074085
C            5.63663655967940        0.43078139857512       -1.27310892302952
C            5.52265529031407        1.05458054012602       -2.50648789673597
C            5.60372355380644        0.33767275384236       -3.68645400543305
C            5.80397733008244       -1.03141723161291       -3.63208171705814
C            5.91956010879902       -1.66984158005023       -2.41384743525744
C            5.83885849971071       -0.95151561067748       -1.21713008649871
N            5.95734364615271       -1.60493168098051       -0.00157091094831
C            6.18576388920958       -3.01259317793371        0.01059487654654
C            7.48561263110627       -3.50261765799302        0.00026696078752
C            7.70613506922185       -4.86886109776222        0.01701409806979
C            6.63378541998269       -5.74558085401621        0.04412867790215
C            5.33772495749632       -5.25637574474559        0.05345391842790
C            5.11003076708898       -3.89116171914653        0.03669919594777
C            5.88409131020293       -0.92648892514826        1.20403314524803
C            6.00676454248317       -1.62106039157074        2.41128227979614
C            5.93734414695170       -0.95878393998308        3.62003223464181
C            5.74221495500465        0.41152948052292        3.65413866055183
C            5.61793179978180        1.10466167134893        2.46395745728959
C            5.68488571932885        0.45674184274795        1.23954845995434
C            0.11443795675086        0.94778633634356       -0.82832186428604
C           -1.18625821266298        0.48657026778577       -0.85341956497885
H           -9.63393086948339        1.45882138970263        0.91454731065101
H          -10.63261197032653        2.60744825641661        0.03001100851646
H           -9.67293813971602        1.42943171240135       -0.85820445807598
H           -7.89037828126036        4.76424994358289        1.20974652462426
H           -8.51523552527505        3.39218230469027        2.12233476582881
H           -9.62436405617517        4.45455220993641        1.24946144730000
H           -9.66594477310776        4.40093593858118       -1.31507703499435
H           -8.58657439910804        3.30103572504873       -2.17907458535059
H           -7.93149798493402        4.70931760696878       -1.34666382738146
H           -6.12101362008742        4.28546430474064       -0.09022787825763
H           -3.87989768852800        3.34818037227090       -0.08378914497264
H           -7.85505694882525        0.36844529734421       -0.01435416998514
H           -6.96109412142596       -2.13488994015320       -0.01306269313498
H           -7.48823122942749       -3.93632869376780        1.26925959865396
H           -6.13356821512087       -4.64528352042604        2.14508585658013
H           -7.25452176439202       -5.68325971328105        1.25756389990013
H           -6.10494883432870       -4.60184007200225       -2.15780340643145
H           -7.47405493224455       -3.91517901079639       -1.28687451845378
H           -7.23446673288665       -5.66052458813390       -1.30678548107672
H           -4.27741125254054       -5.82226187835219        0.88544463711641
H           -5.46607566399711       -6.73263131485746       -0.03893076570099
H           -4.24799051228898       -5.78651337477279       -0.88745617243414
H           -3.13432719296987       -4.05829153519590        0.09431776452819
H           -2.00340787169720       -1.91552639306594        0.11385043959644
H           -2.47217210481638        2.39305349745231        1.62520881035959
H           -0.16901158642976        3.24571522213555        1.62827170366798
H            1.29922044539290        4.51311534015027        0.14115985881463
H            3.59992513870396        5.39124468651638        0.12026587083665
H            2.77032426469080        0.49643153318901       -0.01448171473925
H            8.41899188710795        1.34350475131392       -0.13308688581665
H            9.75285929275565        3.42669884238816       -0.14942831835987
H            8.64950489446615        5.61599105902605       -0.06931411043411
H            6.18688864434471        5.78077860731954        0.02609613706465
H            5.36757908807834        2.12401947534529       -2.53520030082663
H            5.51296167437002        0.84246208929154       -4.63634837474302
H            5.87025608663178       -1.60890758703994       -4.54265899983965
H            6.07614237597658       -2.73738362986270       -2.38361578697840
H            8.31358444943786       -2.80908862352230       -0.01931222040051
H            8.71706820589842       -5.24854364460102        0.00973755457994
H            6.80850903193571       -6.81104608044330        0.05821675207252
H            4.50115359193228       -5.93897623517939        0.07473081743258
H            4.10373893435324       -3.49833880029741        0.04518978496180
H            6.15856097755697       -2.68955426803779        2.39686750774409
H            6.03582730534642       -1.51833990043794        4.53880725123521
H            5.68781280599163        0.93586162738632        4.59614180544767
H            5.46459894725025        2.17436363806056        2.47909098543462
H            0.83709063356148        0.54500488948603       -1.52335291319524
H           -1.48114401233275       -0.26830956700968       -1.56703724815651
