  138
       -191.03373140
 C         11.6913814727        6.9817760731       -0.6972051265
 C         10.1990845702        7.0214442664       -0.3387175850
 C          9.4873528869        7.9149972662       -1.3581793267
 C         10.0149051890        7.6435065810        1.0528387386
 C          9.6546088476        5.6021461341       -0.3209606863
 C          8.6146136519        5.1770079249       -1.1388294048
 C          8.1438742347        3.8779318668       -1.0866292055
 C          8.6994386216        2.9450275717       -0.2170103006
 C          8.1954847177        1.5670359133       -0.1619274717
 C          9.0869026839        0.4943922775       -0.0297005625
 C          8.6563666673       -0.8159748838        0.0208231656
 C          7.2926142848       -1.0586666982       -0.0652375088
 C          6.3737490139        0.0120834950       -0.1679596160
 C          6.8276270579        1.3174253124       -0.2259981386
 C          5.0586324215       -0.5758872192       -0.1691815070
 C          3.7907593741       -0.0396960625       -0.2474019909
 C          2.6775095183       -0.9003616857       -0.2344865168
 C          1.3334588978       -0.4297973440       -0.2909904281
 C          0.9437731758        0.9226200722       -0.1117373449
 N         -0.2851543805        1.2966594404       -0.0350287330
 C         -1.3157740044        0.4047838673       -0.1483534613
 C         -2.6606763920        0.8760254182       -0.1295286787
 C         -2.8820964903        2.2772432637       -0.0844518959
 C         -4.1370722846        2.8240333692       -0.0110012737
 C         -5.2309918381        1.9611369673        0.0141122121
 C         -5.0436148847        0.5602285304       -0.0763478072
 C         -3.7767796689        0.0192361802       -0.1447057760
 C         -6.3611883184       -0.0227157921       -0.0778795624
 C         -6.8212856919       -1.3265312379       -0.1258672246
 C         -8.1916160944       -1.5679571981       -0.0890014733
 C         -8.7071609867       -2.9411695165       -0.1513782601
 C         -8.0752233620       -3.9800293307        0.5243483693
 C         -8.5622295186       -5.2728386068        0.4660653399
 C         -9.6969427419       -5.5853008411       -0.2728572553
 C        -10.2655235002       -6.9919429115       -0.3689292091
 C         -9.4527575672       -8.0141542109        0.4302769170
 C        -11.7007833261       -6.9903932723        0.1761183478
 C        -10.2690024439       -7.4298981601       -1.8405219025
 C        -10.3249959379       -4.5419363514       -0.9498111030
 C         -9.8466812069       -3.2494794813       -0.8911400260
 C         -9.0795135884       -0.4892508067        0.0191105612
 C         -8.6424172935        0.8182992995        0.0761257459
 C         -7.2762686649        1.0529160685        0.0067650279
 N         -6.5803764812        2.2424550813        0.0614365969
 C         -7.1480678611        3.5166303507        0.1814389436
 C         -8.1719799981        3.9205095547       -0.6668740410
 C         -8.7365484672        5.1759301484       -0.5337667601
 C         -8.2981565512        6.0693968072        0.4366484337
 C         -8.8932168586        7.4564270707        0.6169885168
 C         -9.4811280662        7.5661387378        2.0311935770
 C        -10.0086136960        7.7555247940       -0.3882141599
 C         -7.7871010116        8.5045869938        0.4304659165
 C         -7.2657690701        5.6514527514        1.2747670085
 C         -6.6983664493        4.3997043378        1.1588469107
 C         -0.9257533054       -0.9446997737       -0.3450317465
 N          0.3035887776       -1.3193783771       -0.4194725895
 C          2.9024902061       -2.3000982386       -0.1708244174
 C          4.1595903497       -2.8423213451       -0.0978412281
 C          5.2505011734       -1.9754215190       -0.0671066875
 N          6.6006106726       -2.2509920173       -0.0068870574
 C          7.1704937858       -3.5214632751        0.1353763823
 C          6.7046456017       -4.3990732371        1.1102790722
 C          7.2729613090       -5.6485553032        1.2456806856
 C          8.3224157049       -6.0694372894        0.4306734657
 C          8.9165728125       -7.4541647044        0.6306178698
 C          9.4709229755       -7.5580950374        2.0587347318
 C         10.0563341790       -7.7542618483       -0.3465790271
 C          7.8172329420       -8.5051824882        0.4213013485
 C          8.7766379482       -5.1815478280       -0.5377675670
 C          8.2113400151       -3.9288809205       -0.6906985544
 C          9.7447099637        3.3656350601        0.6019802719
 C         10.2056096609        4.6648016358        0.5503516561
 H         12.2598104763        6.4113447386        0.0320310163
 H         11.8312976071        6.5221930192       -1.6735474418
 H         12.0957397205        7.9914150020       -0.7294852016
 H          9.6066090823        7.5284115584       -2.3676350027
 H          8.4271492896        8.0004121399       -1.1315861486
 H          9.9183125244        8.9138777162       -1.3281905944
 H         10.5539401158        7.0833836577        1.8118552723
 H          8.9608669960        7.6553808056        1.3227933519
 H         10.3844581893        8.6668907547        1.0578595373
 H          8.1528885460        5.8561325679       -1.8373937450
 H          7.3450389638        3.5773346618       -1.7495942588
 H         10.1461115355        0.7003120176        0.0160115823
 H          9.3632069471       -1.6239727277        0.1349616766
 H          6.1265817722        2.1357942110       -0.2919880523
 H          3.6674502678        1.0290585549       -0.3247418694
 H          1.6940229365        1.6832459609        0.0513188557
 H         -2.0129875250        2.9162918533       -0.0960196730
 H         -4.2716041059        3.8949593054        0.0197609598
 H         -3.6572519144       -1.0506794577       -0.2111047766
 H         -6.1246430244       -2.1469323404       -0.2098826488
 H         -7.2011210057       -3.7709822082        1.1243841210
 H         -8.0370918427       -6.0377806680        1.0150910166
 H         -9.4402105525       -7.7631065084        1.4884030124
 H         -8.4300217504       -8.0726876142        0.0650507302
 H         -9.9039337262       -8.9988740695        0.3244761039
 H        -12.3406663772       -6.3222435416       -0.3936617134
 H        -12.1225007546       -7.9922061125        0.1246500758
 H        -11.7077689816       -6.6654542915        1.2146691689
 H         -9.2579308622       -7.4057157225       -2.2421616634
 H        -10.6517319790       -8.4446706865       -1.9287859953
 H        -10.8915606288       -6.7778752139       -2.4469142262
 H        -11.2077426113       -4.7356825748       -1.5412699988
 H        -10.3503944047       -2.4699287696       -1.4446383246
 H        -10.1382714325       -0.6915955333        0.0862966954
 H         -9.3449759770        1.6305707641        0.1869187330
 H         -8.5146768263        3.2534654788       -1.4439919340
 H         -9.5270144242        5.4483488108       -1.2136511137
 H         -8.7167359590        7.4284713402        2.7907900039
 H         -9.9305719610        8.5464006060        2.1744906104
 H        -10.2488849342        6.8094436644        2.1792113434
 H         -9.6374104768        7.7129760765       -1.4095774017
 H        -10.8339652767        7.0559431129       -0.2778902682
 H        -10.3938055206        8.7579886990       -0.2131972876
 H         -7.3496948302        8.4173143110       -0.5619727894
 H         -8.1987920826        9.5056542058        0.5393295579
 H         -6.9951096919        8.3817757318        1.1638654783
 H         -6.8957899350        6.3095925852        2.0462140385
 H         -5.9165201699        4.0911469784        1.8367187627
 H         -1.6760589448       -1.7038871286       -0.5153116960
 H          2.0356243676       -2.9420530475       -0.1956119370
 H          4.2993698331       -3.9129896655       -0.0785112201
 H          5.9084609909       -4.0884743885        1.7703319641
 H          6.8889477322       -6.3028774446        2.0135229734
 H          8.6885706267       -7.4201487986        2.7997555697
 H          9.9190199661       -8.5369155804        2.2155068151
 H         10.2333363693       -6.7992778543        2.2225941963
 H         10.8758841043       -7.0504416927       -0.2209567031
 H         10.4414749719       -8.7540738217       -0.1568821832
 H          9.7090621964       -7.7190685445       -1.3765826360
 H          7.4031254259       -8.4217318563       -0.5814154443
 H          7.0080055801       -8.3813658785        1.1354816734
 H          8.2280079664       -9.5051475802        0.5429265055
 H          9.5810111172       -5.4562500756       -1.2001830701
 H          8.5672041692       -3.2666121743       -1.4659600035
 H         10.1843573739        2.6721870118        1.3046542842
 H         11.0126572804        4.9490201891        1.2094680365
