48
 energy: -71.655680444573 gnorm: 0.000046750711 xtb: 6.7.1 (edcfbbe)
C            0.61148109242012       -2.52480694012493       -1.44673018361777
C            0.25309651556488       -1.97321381458102       -0.04070281998627
C            0.87898414492673       -2.81143267374031        1.10755185229977
C           -1.24744374487919       -2.12869327789178        0.05125789642500
C           -1.80014148082395       -3.40139146141820        0.09044236805373
C           -3.16825061468535       -3.60077132229496        0.12349000163421
C           -4.02342550204105       -2.50263211557499        0.10833466016960
C           -3.50791060696632       -1.23057390045374        0.07246113099730
C           -2.11516794330539       -1.02227868720941        0.05079812078928
N           -1.60401172044922        0.24744307325349        0.03532445533558
C           -2.52198796027650        1.34141056806532       -0.00386475192388
C           -2.89057835771486        1.88241906927349       -1.22858674478013
C           -3.78530746474806        2.93788890009493       -1.26793100665157
C           -4.31068222861165        3.44963264886971       -0.09254921292575
C           -3.94177227046427        2.90581713405749        1.12730701618924
C           -3.04784406816562        1.85018073382880        1.17691926920290
C           -0.25794475008936        0.52663286884633        0.06021389182288
C            0.15730447399942        1.85868192353834        0.12205881002257
C            1.48505780271728        2.18545377214859        0.13532086400524
C            2.49017025819328        1.17508966339685        0.06998448665193
C            3.82561983800307        1.52808334887014        0.06727830674584
C            4.85283277617711        0.53674818717613       -0.00423882401447
C            6.19484429609343        0.89756417523847       -0.00641859267281
N            7.31414643368360        1.19644878245523       -0.00783198628964
C            4.46729626512089       -0.80371661772275       -0.07261773896972
C            3.14262416795474       -1.16577994197901       -0.06631436961436
C            2.08106157784745       -0.20131152763340        0.00810564820201
C            0.72183464253132       -0.53770604942596        0.02379317373550
H            0.39463409898107       -3.58783336977279       -1.50335265495044
H            1.65551323606693       -2.36089181342027       -1.69093549457706
H            0.00924759724062       -2.01334909956875       -2.19642939227190
H            0.11538388119953       -3.06534777302517        1.83992951496091
H            1.65099778130207       -2.25342903042668        1.62820367773994
H            1.30957891888902       -3.73604261286376        0.73230695342125
H           -1.14762893097051       -4.26045565414984        0.09850724541987
H           -3.56854739939465       -4.60224538103542        0.15587043256542
H           -5.09298141644091       -2.64749909500326        0.12583563653505
H           -4.17289212847199       -0.38179137524853        0.06174446044933
H           -2.47340912695507        1.47676027572875       -2.13820294100480
H           -4.07175748689120        3.35935775917274       -2.21955647996013
H           -5.00788519259517        4.27299264026666       -0.12725919154747
H           -4.34960795305703        3.30319159424511        2.04441405479468
H           -2.75138826959817        1.41969784114760        2.12184061111166
H           -0.57879339901823        2.64599436325764        0.16335367423210
H            1.79452672637575        3.21788738728021        0.18832560867640
H            4.10880008991089        2.56950862890417        0.11798362128700
H            5.23178272500447       -1.56718508365970       -0.13120600473221
H            2.92475819434426       -2.21601749377642       -0.11899387774069
