48
 energy: -71.731608406741 gnorm: 0.000039558042 xtb: 6.7.1 (edcfbbe)
C            1.79717817463325       -2.68482626873129        0.59365802985542
C            0.71059813408787       -1.61154717886007        0.61489342743886
C            0.31965532751145       -1.43935002860323        2.10595920916682
C           -0.52830905671704       -2.05633274203224       -0.13780666332680
C           -0.74237929636745       -3.34741325514339       -0.59405935310458
C           -1.94486856402555       -3.71274984600408       -1.17699357105399
C           -2.95712949654295       -2.77969717228305       -1.31194358186876
C           -2.75631644800946       -1.47942540321380       -0.89219680373354
C           -1.54405558779664       -1.10973182235018       -0.31303500915884
N           -1.30486376959900        0.20845532541372        0.06471829454270
C           -2.41031560980028        1.10633182036996        0.08122813212326
C           -3.25181981681221        1.11439939272912        1.18596737389763
C           -4.34347389540267        1.96525817547712        1.21572487126969
C           -4.59763587320729        2.80810789377381        0.14656651776462
C           -3.76228608747894        2.79553463556678       -0.95914410293667
C           -2.67166451713518        1.94513199738244       -0.99721378054992
C           -0.00693060903846        0.68194136414877        0.09962584541013
C            0.20738934588519        2.07713277153719        0.14928011776196
C            1.46729542917113        2.58369632035054        0.11341234168325
C            2.56839014849074        1.72873194559797       -0.09743341677366
C            3.84662983970183        2.27816666152405       -0.27314490157304
C            4.93473221221993        1.47606127757004       -0.54401981688144
C            6.21625190062255        2.03050320249512       -0.71885379474301
N            7.26599062745349        2.47817983225529       -0.85874437963512
C            4.73632627563117        0.08492636885222       -0.68553116922224
C            3.50339250927590       -0.46369249701565       -0.48772005891208
C            2.36838997128776        0.31097629599385       -0.13320210519147
C            1.07264022489430       -0.20972417217907        0.12279420583145
H            1.42720136744037       -3.56598100336286        1.11512115383104
H            2.67927294382441       -2.34243639167430        1.12725477215285
H            2.06096256672700       -2.97897350232030       -0.41910201503432
H           -0.46768021787851       -0.70215130952010        2.23311203860734
H            1.18671049856289       -1.11506189478344        2.67828521108317
H           -0.03186585895172       -2.38764253652124        2.50762564102590
H            0.02318793540649       -4.09800482245106       -0.48686750881392
H           -2.09195046374705       -4.72883059403349       -1.51166545943915
H           -3.90219912409159       -3.05827620241652       -1.75450500057591
H           -3.53886563631534       -0.74687610926849       -1.01827550553787
H           -3.04978053125372        0.45000480809031        2.01323236433450
H           -4.99479550946457        1.97014687235611        2.07701955860101
H           -5.44845973475335        3.47234513536838        0.17214962998313
H           -3.96228942212224        3.44682917909308       -1.79707656601093
H           -2.01963515796614        1.92305447005245       -1.85868018084269
H           -0.63836965577440        2.73744865861721        0.25796125276939
H            1.63705233598647        3.64583401754973        0.20837219070500
H            3.96697152853549        3.35115950442100       -0.21401296288736
H            5.57317986437464       -0.53732865970121       -0.96855990535260
H            3.39854177852337       -1.51430351412834       -0.67417656669338
