48
 energy: -71.738138888735 gnorm: 0.000047929640 xtb: 6.7.1 (edcfbbe)
C            0.64132582052215       -2.55989508364515       -1.44626213892346
C            0.25202407230384       -1.99027152034193       -0.06221100090855
C            0.85809000514156       -2.80043519658442        1.11448434995308
C           -1.25911223239589       -2.13244757679004        0.01826500972540
C           -1.81448133611592       -3.40525472368610        0.04552332071784
C           -3.18241449257804       -3.60344538179765        0.08721788846342
C           -4.02668844445108       -2.50691231753883        0.10263382675279
C           -3.49916511027172       -1.23233015360892        0.07853386273878
C           -2.11674736321244       -1.03340583615698        0.03423117231659
N           -1.59633314545572        0.25158926150562        0.01012744986183
C           -2.51062923397970        1.34775750172707       -0.00556326463346
C           -2.94027447200073        1.86982598350171       -1.21907656887341
C           -3.83432504896100        2.92654817945123       -1.23461380796667
C           -4.30144316527593        3.45998701747324       -0.04446394895005
C           -3.87546609965068        2.93581624135543        1.16538935204792
C           -2.98147027099707        1.87947557584670        1.18882990726807
C           -0.23947522210436        0.49179323756103        0.02398443721020
C            0.17766154665209        1.84628700203440        0.06251521537940
C            1.49279819248348        2.17747593717608        0.07344560826075
C            2.48116806828134        1.17209810616482        0.04504632332280
C            3.83736102530391        1.52913303904833        0.04889204223397
C            4.82400270537964        0.56693721201899        0.01484491556280
C            6.18478945467016        0.92591807747950        0.01754915323372
N            7.29795781768296        1.21361959569290        0.01966283842739
C            4.44920050959187       -0.79491864128422       -0.02200807050025
C            3.13391671735498       -1.15357024103292       -0.02275237499309
C            2.08175698566534       -0.19829324719963        0.00930632915800
C            0.70007631687714       -0.53470289719855        0.00289201876738
H            0.44498855836942       -3.62811481166152       -1.48834030216577
H            1.68446509913824       -2.38605063799810       -1.68811128284368
H            0.03799429494464       -2.07574156543213       -2.21361071647615
H            0.06641701349076       -3.14338184636446        1.77787859368453
H            1.53087951837705       -2.19014818340233        1.71057898847602
H            1.39896452988621       -3.67561931118567        0.76220371884917
H           -1.16322631097171       -4.26613870982267        0.03611223605707
H           -3.58437032129945       -4.60537822670903        0.10553837566912
H           -5.09794469663191       -2.64102574160574        0.13440110599389
H           -4.16236808393234       -0.38135140344283        0.09281993211230
H           -2.57008432286053        1.44598899479857       -2.14107926293519
H           -4.16694865477641        3.33248274439375       -2.17836802830366
H           -4.99905557237689        4.28396462287631       -0.05967537487281
H           -4.24026489834252        3.34912959974837        2.09393717231819
H           -2.64286445204929        1.46251098025112        2.12606680064123
H           -0.57087246460496        2.62235465071014        0.08278663186079
H            1.79841771465692        3.21299216391756        0.10171485291682
H            4.10244357099462        2.57699847908585        0.07767585667768
H            5.22262506569126       -1.54918527837776       -0.04843890292589
H            2.91097198855454       -2.20424737829089       -0.04534424104605
