48
 energy: -71.655677355145 gnorm: 0.000040688627 xtb: 6.7.1 (edcfbbe)
C            0.63533594197109       -2.52156243551577       -1.45165488387662
C            0.26175205410042       -1.97093606906653       -0.04927001210459
C            0.88050596910874       -2.80588133462415        1.10534034388888
C           -1.23881055887378       -2.13291399657071        0.03020337108249
C           -1.78653667125536       -3.40799077619390        0.06093418775332
C           -3.15396908641609       -3.61310875920725        0.08618220044301
C           -4.01355194881296       -2.51836771217755        0.07359417398548
C           -3.50304253420359       -1.24408468309559        0.04676177910706
C           -2.11105813366663       -1.03007984750455        0.03055169024944
N           -1.60531357451958        0.24182299264740        0.02256574983004
C           -2.52878390345165        1.33163407168541       -0.00640522189888
C           -2.91884389466922        1.86775361570576       -1.22661256854311
C           -3.81906156621985        2.91895816024459       -1.25462755665167
C           -4.32858504987853        3.43120659156840       -0.07254325047746
C           -3.93855056393818        2.89200693427342        1.14277863778874
C           -3.03903544332310        1.84067180705368        1.18106419830230
C           -0.26053475809915        0.52684388394836        0.04991284680059
C            0.14888136492081        1.86081690143995        0.10897633111614
C            1.47516755283915        2.19319919828248        0.12797312574436
C            2.48482548800818        1.18676736873952        0.07321776655335
C            3.81878874772615        1.54532595868451        0.07856438357250
C            4.85052924355501        0.55806022544814        0.01683014997483
C            6.19103314702026        0.92436822110140        0.02356403559399
N            7.30909624309087        1.22776131215887        0.02978268146234
C            4.47099747788048       -0.78415232144487       -0.05075306965560
C            3.14781987304745       -1.15171519526417       -0.05235594152140
C            2.08178495398404       -0.19145944683466        0.01228322833824
C            0.72385968578726       -0.53343815013627        0.01895274787197
H            0.42573259763323       -3.58597705655193       -1.50923077269358
H            1.68031711139034       -2.35139972689316       -1.68735194362922
H            0.03620277239668       -2.01451290478041       -2.20680409583682
H            0.11132271715359       -3.06137682051652        1.83131282614118
H            1.64623264725065       -2.24485414147844        1.63200139097444
H            1.31709420496457       -3.72959588271246        0.73487816892420
H           -1.13056266191772       -4.26440854394033        0.06900763168945
H           -3.55027781201054       -4.61637098851134        0.11154699321806
H           -5.08258272390357       -2.66760138584586        0.08631113587221
H           -4.17136142217095       -0.39788403587656        0.03893814897574
H           -2.51408132398147        1.46182541064575       -2.14168560862952
H           -4.12221401140916        3.33668465368572       -2.20272810946579
H           -5.02993373123528        4.25136400380108       -0.09850044862744
H           -4.33433266659320        3.28948221424058        2.06510816743186
H           -2.72615576079919        1.41377565813396        2.12229297159035
H           -0.59068430099349        2.64519637515154        0.14294475493327
H            1.78008507820230        3.22713542317918        0.17801063118630
H            4.09733705514795        2.58806888419085        0.12794645730368
H            5.23904839464083       -1.54456970889851       -0.10197894931630
H            2.93468130191094       -2.20301791796657       -0.10306006502719
