  88
       -145.53116956
 O          0.2035345334       -1.6233113950        2.0696679204
 C         -0.2385310395       -1.3214942913        0.9781718986
 C         -1.6784880387       -1.0564084368        0.7545261092
 C         -2.4248172065       -0.4526771220        1.7639358206
 C         -3.7668078889       -0.1962000490        1.5814531318
 C         -4.3926606588       -0.5647566470        0.3924603092
 N         -5.7608015735       -0.3054066524        0.1971649310
 C         -6.2492224841        1.0038342146        0.2209750428
 C         -5.4206331169        2.1024547817        0.4119947290
 C         -5.9388040591        3.3886515223        0.4188498835
 C         -7.2885764547        3.6010461028        0.2247392228
 C         -8.1241057274        2.5165637513        0.0026401429
 C         -7.6131213292        1.2317687959       -0.0075533142
 O         -8.4977677024        0.2152468814       -0.2689335364
 C         -8.0097060284       -1.0675710518       -0.2533884300
 C         -8.9200120454       -2.0863638095       -0.4657973088
 C         -8.5091576332       -3.4106637812       -0.4338576195
 C         -7.1875136728       -3.7055602545       -0.1673477962
 C         -6.2706486316       -2.6873826157        0.0454193817
 C         -6.6584325336       -1.3545866079       -0.0182006110
 C         -3.6552291982       -1.2004529007       -0.6053640527
 C         -2.3094728431       -1.4391030220       -0.4279230189
 C          0.6344196293       -1.2686478469       -0.2280132683
 C          1.6125028310       -2.2516867058       -0.3502960299
 C          2.4276480115       -2.3123733579       -1.4639303792
 C          2.2727053035       -1.3760038350       -2.4727613244
 C          1.3205037843       -0.3814226873       -2.3514982056
 C          0.5006921214       -0.2985741113       -1.2290085147
 C         -0.4628960727        0.8149274669       -1.1483605396
 C         -1.3345173152        1.0034051438       -2.2186419977
 C         -2.2797144128        2.0111319515       -2.2092223152
 C         -2.3748804295        2.8577943408       -1.1168567965
 C         -1.5168113119        2.6859743009       -0.0488246297
 C         -0.5452181600        1.6870182990       -0.0549397782
 C          0.3455409769        1.6237989069        1.1394584398
 O         -0.0870559672        1.8681524358        2.2503256521
 C          1.7707925390        1.3005383754        0.9093278316
 C          2.4708981808        0.6298486610        1.9103344586
 C          3.7849205106        0.2619071497        1.7185454375
 C          4.4297522922        0.5740126800        0.5233015892
 N          5.7524294857        0.1561396548        0.2976462568
 C          6.0841514079       -1.2031556757        0.3104177465
 C          5.1531852405       -2.1975530973        0.5843259934
 C          5.5170057292       -3.5355107585        0.5739939557
 C          6.8142813025       -3.9064463148        0.2839233802
 C          7.7496316418       -2.9282516240       -0.0178820955
 C          7.3909987743       -1.5924977297       -0.0142242409
 O          8.3664012551       -0.6914781437       -0.3618995370
 C          8.0405766705        0.6406517902       -0.3164462285
 C          9.0499172918        1.5424233474       -0.5993213289
 C          8.8058841484        2.9063711635       -0.5430036997
 C          7.5534016824        3.3581154358       -0.1788717455
 C          6.5381681202        2.4576301544        0.1049218336
 C          6.7546320772        1.0878539213        0.0143906409
 C          3.7505005037        1.3022464618       -0.4533294008
 C          2.4338306059        1.6615194715       -0.2624734256
 H         -1.9289299810       -0.1702024286        2.6790533697
 H         -4.3433536366        0.2786199946        2.3604946069
 H         -4.3619919595        1.9542677319        0.5457989312
 H         -5.2731744769        4.2231656009        0.5794752517
 H         -7.6963575397        4.5993121169        0.2344279674
 H         -9.1801903024        2.6468069096       -0.1712229207
 H         -9.9487493420       -1.8211886925       -0.6497833020
 H         -9.2252320374       -4.1987143071       -0.6039973942
 H         -6.8556871474       -4.7311304775       -0.1165989436
 H         -5.2455264745       -2.9322450192        0.2729300531
 H         -4.1467961537       -1.4938789276       -1.5208977510
 H         -1.7440947558       -1.9344812403       -1.2030824777
 H          1.7073159736       -2.9783269183        0.4429291911
 H          3.1797190492       -3.0818910029       -1.5454948567
 H          2.9002097299       -1.4162486121       -3.3504412472
 H          1.2218786853        0.3642681855       -3.1270904145
 H         -1.2791107828        0.3289026112       -3.0606623563
 H         -2.9468981117        2.1332878223       -3.0491515442
 H         -3.1143975966        3.6433860811       -1.1013918134
 H         -1.5743292375        3.3332008894        0.8137109330
 H          1.9558820783        0.3792793715        2.8239858912
 H          4.3227085915       -0.2642797608        2.4921381140
 H          4.1323557608       -1.9286974695        0.7953354046
 H          4.7715750275       -4.2840136731        0.7962155398
 H          7.1033740501       -4.9453498357        0.2809774006
 H          8.7674638093       -3.1817490324       -0.2674418742
 H         10.0222827949        1.1552028592       -0.8582538392
 H          9.5973712409        3.6025533092       -0.7701340113
 H          7.3536801034        4.4160769514       -0.1066210545
 H          5.5698486310        2.8228157262        0.4078714334
 H          4.2605561449        1.5649519626       -1.3680699334
 H          1.9155702033        2.2280447732       -1.0214286859
  88
       -145.52758889
 O          0.0121554956        2.3574417503        0.8460507819
 C         -0.4195509204        1.7371633113       -0.1062051495
 C         -1.5908793117        0.8365231172        0.0282882757
 C         -2.4928017838        0.6305342232       -1.0148734024
 C         -3.5740287720       -0.2089821978       -0.8433164463
 C         -3.7634333939       -0.8720778090        0.3687940059
 N         -4.8477507477       -1.7531426879        0.5301537432
 C         -6.1626661253       -1.2874213046        0.4346727414
 C         -6.4617446721        0.0582743706        0.2640161750
 C         -7.7773634168        0.4882771040        0.1834891653
 C         -8.8148515758       -0.4164615335        0.2839850434
 C         -8.5334647417       -1.7589869814        0.4874588576
 C         -7.2231543206       -2.1926427534        0.5703078160
 O         -7.0244540536       -3.5295662090        0.8064332238
 C         -5.7294728180       -3.9678840288        0.9209764391
 C         -5.5460791300       -5.3167428964        1.1635783498
 C         -4.2670327439       -5.8438148019        1.2580808090
 C         -3.1771661340       -5.0141579280        1.0911561292
 C         -3.3552101406       -3.6602530173        0.8506662505
 C         -4.6293160906       -3.1111108061        0.7834343279
 C         -2.8720041140       -0.6566738291        1.4184444329
 C         -1.8056951965        0.2009893032        1.2510157766
 C          0.2172378056        1.7796327967       -1.4499655308
 C          0.3303422842        0.5994579466       -2.1846819887
 C          1.0107651631        0.5759590329       -3.3864221912
 C          1.5750666223        1.7406763013       -3.8817589826
 C          1.4676489280        2.9167838729       -3.1647818089
 C          0.8078477863        2.9518940808       -1.9392800920
 C          0.7037832024        4.2372580341       -1.2294424313
 C         -0.5395458601        4.7532860267       -0.8836449622
 C         -0.6484686577        6.0013525760       -0.2983678164
 C          0.4852533928        6.7651785270       -0.0729725972
 C          1.7274247364        6.2717684766       -0.4263043393
 C          1.8499447447        5.0058572063       -0.9876681867
 C          3.2086112729        4.4817318487       -1.3073347312
 O          4.0356956694        5.1375349271       -1.9109312243
 C          3.4784648096        3.1115578181       -0.8088139068
 C          2.9301531375        2.6741666067        0.3951956667
 C          3.1759953727        1.3938902273        0.8442743813
 C          3.9544514710        0.5206716690        0.0883946843
 N          4.1634263450       -0.8021526715        0.5243593699
 C          3.0863572581       -1.6755835224        0.6908137238
 C          1.7743267367       -1.2966855753        0.4366226228
 C          0.7301723461       -2.1949947510        0.5962394813
 C          0.9768196388       -3.4878392943        1.0095428382
 C          2.2833851896       -3.8899759092        1.2447664235
 C          3.3293096411       -3.0008913291        1.0797725392
 O          4.5938849690       -3.4855437353        1.2964342075
 C          5.6405105433       -2.6066835074        1.1597540415
 C          6.9063838263       -3.0943621514        1.4253322147
 C          8.0106251430       -2.2595218651        1.3383189720
 C          7.8344241346       -0.9318565043        1.0050640258
 C          6.5667847687       -0.4383204994        0.7371406288
 C          5.4545792169       -1.2695914019        0.7850884192
 C          4.5251556308        0.9648439542       -1.1037114483
 C          4.3031248198        2.2547372424       -1.5358742672
 H         -2.3493536198        1.1356581509       -1.9587212449
 H         -4.2734116383       -0.3706906514       -1.6501794628
 H         -5.6610675782        0.7787664786        0.2038466452
 H         -7.9801603887        1.5392404903        0.0476037158
 H         -9.8395042352       -0.0873449126        0.2191616429
 H         -9.3196808794       -2.4894213333        0.5910093570
 H         -6.4204158728       -5.9389673763        1.2665864851
 H         -4.1331271517       -6.8970726906        1.4453772583
 H         -2.1766079660       -5.4137267682        1.1396194165
 H         -2.4926343106       -3.0298622598        0.7062872749
 H         -3.0296669036       -1.1580329020        2.3616272910
 H         -1.1156657856        0.3874425562        2.0601377380
 H         -0.0966691997       -0.3130965684       -1.7969667014
 H          1.0978243384       -0.3487314795       -3.9364162147
 H          2.0978841520        1.7319621452       -4.8262932360
 H          1.8986935724        3.8275864673       -3.5528674894
 H         -1.4274064849        4.1704428592       -1.0848344471
 H         -1.6214264146        6.3835433951       -0.0281045884
 H          0.4010003496        7.7440640812        0.3741262032
 H          2.6211359388        6.8539328423       -0.2566922257
 H          2.3154794570        3.3364939034        0.9828090863
 H          2.7590787410        1.0606433590        1.7823933779
 H          1.5671469887       -0.2928111680        0.1051066083
 H         -0.2783632213       -1.8666796847        0.3941730290
 H          0.1672633196       -4.1876760000        1.1424296492
 H          2.5145586205       -4.8972170733        1.5521621824
 H          7.0063477208       -4.1312538020        1.7030226731
 H          8.9949265112       -2.6493769314        1.5429282339
 H          8.6806176903       -0.2642458115        0.9540370008
 H          6.4402335075        0.6048289607        0.4953396769
 H          5.1351651063        0.2889031936       -1.6844417491
 H          4.7363292679        2.6071307129       -2.4595829230
  88
       -145.52756879
 O         -0.1270242225        2.7712373864       -0.0813442023
 C         -0.4395126730        1.8085459409       -0.7580529438
 C         -1.5849037593        0.9493982037       -0.3755358259
 C         -2.2776078049        0.1472571370       -1.2831690669
 C         -3.2941372830       -0.6764663909       -0.8467488873
 C         -3.6498423182       -0.7063680301        0.5015598658
 N         -4.6484566758       -1.5897086152        0.9457560566
 C         -5.8203483061       -1.1093599390        1.5380292798
 C         -6.0956777144        0.2482068041        1.6413637685
 C         -7.2749950480        0.6906942929        2.2209431847
 C         -8.2021709638       -0.2150311438        2.6952056760
 C         -7.9560042901       -1.5741942659        2.5709933992
 C         -6.7825186047       -2.0208089402        1.9920566609
 O         -6.6252913394       -3.3789502099        1.8727657238
 C         -5.4595906822       -3.8357109752        1.3125180649
 C         -5.2959108013       -5.2068477956        1.2373496488
 C         -4.1295279686       -5.7459622401        0.7157284087
 C         -3.1239119955       -4.9038142396        0.2865183129
 C         -3.2845456703       -3.5283379185        0.3558810169
 C         -4.4587056794       -2.9722984393        0.8479418284
 C         -3.0004074689        0.1370396798        1.4023808411
 C         -1.9818593062        0.9542204634        0.9635276208
 C          0.3270169933        1.4078514933       -1.9684227229
 C          0.5479099726        0.0598903199       -2.2500234417
 C          1.3106928160       -0.3207775365       -3.3370681526
 C          1.8547269784        0.6424633450       -4.1712079647
 C          1.6621893958        1.9815411569       -3.8906757738
 C          0.9222044069        2.3814108017       -2.7819520896
 C          0.7774842069        3.8238423186       -2.5179701262
 C         -0.4740286794        4.4267444566       -2.4952576839
 C         -0.5951943390        5.7935395520       -2.3239168748
 C          0.5368805805        6.5826543714       -2.1983429053
 C          1.7891031410        5.9990431762       -2.2397757652
 C          1.9204957669        4.6220871643       -2.3819741861
 C          3.2826770949        4.0170245509       -2.3878246355
 O          4.1911198063        4.4652997369       -3.0598208096
 C          3.4473550802        2.8374372421       -1.5023566084
 C          2.8272513447        2.7900749789       -0.2562276138
 C          2.9741190425        1.6806673346        0.5516934773
 C          3.7144413676        0.5857729414        0.1131466891
 N          3.8285890387       -0.5759945067        0.9019325577
 C          2.7124437165       -1.3592958515        1.2102992762
 C          1.4114875965       -0.9506831755        0.9459889616
 C          0.3320456326       -1.7713215863        1.2380569193
 C          0.5288529546       -3.0161338209        1.7991339338
 C          1.8213759526       -3.4422190250        2.0666178595
 C          2.9017173490       -2.6297853172        1.7744409906
 O          4.1456002777       -3.1399686237        2.0485622248
 C          5.2255982030       -2.3212998719        1.8286491657
 C          6.4671855163       -2.8028799769        2.2007907767
 C          7.6003288441       -2.0226114939        2.0267939293
 C          7.4782236969       -0.7528220669        1.4986680994
 C          6.2353705337       -0.2656701052        1.1258134801
 C          5.0949325578       -1.0480719813        1.2613644309
 C          4.3599401239        0.6452405430       -1.1218612904
 C          4.2449490905        1.7695584737       -1.9095075514
 H         -2.0321820875        0.1812316917       -2.3338940310
 H         -3.8255525429       -1.3050672417       -1.5458229918
 H         -5.3883735955        0.9665559975        1.2574113593
 H         -7.4609361724        1.7511452456        2.2921401331
 H         -9.1193353840        0.1240894281        3.1497239532
 H         -8.6678453778       -2.3082116150        2.9128916876
 H         -6.0931184608       -5.8358746934        1.5995623438
 H         -4.0116446799       -6.8164164822        0.6599410527
 H         -2.2012422536       -5.3059486748       -0.1027641232
 H         -2.4822154835       -2.8857121460        0.0302168336
 H         -3.2839192724        0.1228465730        2.4440754845
 H         -1.4502353487        1.5920748533        1.6534553355
 H          0.1473262520       -0.6975028003       -1.5936881819
 H          1.4789347103       -1.3688288157       -3.5335965773
 H          2.4377639332        0.3504240176       -5.0317286659
 H          2.0948732216        2.7368559449       -4.5299204559
 H         -1.3569281716        3.8150969478       -2.6177631515
 H         -1.5754527930        6.2455043081       -2.2974216305
 H          0.4433094624        7.6505942837       -2.0717251807
 H          2.6821475102        6.5992967304       -2.1468965148
 H          2.2336452943        3.6240114911        0.0823203385
 H          2.5147489103        1.6592016501        1.5281960314
 H          1.2374243602        0.0138211403        0.4991854451
 H         -0.6657633844       -1.4200267045        1.0256946335
 H         -0.3094135236       -3.6560994619        2.0261650805
 H          2.0160164231       -4.4111987187        2.4975883654
 H          6.5252032106       -3.7923887352        2.6252553854
 H          8.5657752487       -2.4076562225        2.3140163187
 H          8.3481705942       -0.1266006681        1.3750979634
 H          6.1482268302        0.7328946675        0.7276429866
 H          4.9482812896       -0.1974040406       -1.4536940740
 H          4.7412962328        1.8220521650       -2.8665144068
