84
 energy: -130.751351226828 gnorm: 0.000143815667 xtb: 6.7.1 (edcfbbe)
C            8.43058641855385       -0.33048902813784       -1.25280976714007
C            7.58479645566340        0.19070137173064       -0.07339163074583
C            8.50465906232959        0.69988598686454        1.05487673956331
C            6.73302004460184        1.34137666182519       -0.56263764007358
C            7.34045239513728        2.47138275875090       -1.09407386403226
C            6.60566235376360        3.54224828293203       -1.56933994260057
C            5.21922295791209        3.49444237853418       -1.52831856448204
C            4.58742367911695        2.38867344099806       -1.00667228963327
C            5.32941688019100        1.30662573737068       -0.50784101791934
N            4.67169900822345        0.21297595816297        0.01653751278695
C            3.24787290819165        0.22399540661316        0.06160724579545
C            2.59174917030476        0.94157004730106        1.05422958558857
C            1.21139464979901        0.95331149461592        1.09371351917706
C            0.47369176185449        0.24234867065405        0.15188769228545
C           -0.99920311908204        0.24384399488399        0.20618676049958
C           -1.68542567589446       -0.97463955177790        0.28182100218232
C           -0.99852309938622       -2.15689242231647        0.53917384320385
N           -0.40460671575144       -3.11805241953313        0.78279500226062
C           -3.12980376072855       -0.92929526434044        0.23688912442765
C           -3.93270716520344       -2.14512167688321        0.25458358736304
C           -5.00756934705499       -2.20974776093200        1.12345006215653
C           -5.75403472687158       -3.37973733212542        1.26224256950794
C           -5.42574115893183       -4.49763451429668        0.54028273529856
C           -4.37835786739587       -4.46058040723715       -0.40365999661435
C           -4.07106614676156       -5.58259634125840       -1.20196320391913
C           -3.10602333279657       -5.51618336335996       -2.16861391279073
C           -2.42634942776392       -4.31275098906676       -2.39542771456098
C           -2.68782793448467       -3.21309496671609       -1.62240009300584
C           -3.63520848798759       -3.26192853507776       -0.58079006801875
N           -3.74888200149010        0.21973669647242        0.30111934597746
C           -3.15187609320920        1.40966130564703        0.31192298641690
C           -3.94396554723910        2.59460790696606        0.45209144326261
C           -3.37553550920975        3.73560097160930        1.04171702573987
C           -4.11573203345595        4.87663659580341        1.29083959036146
C           -5.45289488921406        4.93187384257303        0.95580222140365
C           -6.07936471487480        3.82428360510644        0.35092906575548
C           -7.44558421684005        3.87022773930921        0.00711365556905
C           -8.06068608890593        2.81067469291801       -0.61457443471605
C           -7.32280036652571        1.66919603895073       -0.92002063731655
C           -5.98341717511248        1.59915251200789       -0.59753653597810
C           -5.33133342344337        2.64435769043429        0.07231327984628
C           -1.70252809103843        1.44685271032990        0.17666692432049
C           -0.99603456898690        2.60386041666452       -0.15343831952593
N           -0.35683083905808        3.51335511864875       -0.46952519828855
C            1.13933198896763       -0.47980268961926       -0.83388681371974
C            2.51926727043971       -0.48506011176690       -0.88558707681740
C            5.34354096743514       -0.89144584561680        0.49893576822166
C            4.61756299734116       -1.96232621856299        1.04336304917705
C            5.26358489806236       -3.07876229000372        1.52333660931744
C            6.64883664275066       -3.14881009215226        1.47581757006099
C            7.36899571076408       -2.08851035110893        0.95658464428435
C            6.74712555984939       -0.94813825986205        0.46548932841189
H            9.06895434918023       -1.14942796069027       -0.93602225737223
H            7.77927752641208       -0.68804090768868       -2.04797680940180
H            9.06053444140157        0.45818427128786       -1.65239908088946
H            7.90566398135889        1.06880140611034        1.88526425853887
H            9.13648209716309        1.50843484353347        0.70034543362203
H            9.14377897960862       -0.09830729450626        1.41954579620045
H            8.41656976634290        2.52219507367246       -1.14245692565228
H            7.10906948854854        4.40629838403015       -1.97475003823494
H            4.62976198534067        4.31657562467755       -1.90405194648727
H            3.50970548539724        2.35502833453394       -0.98315348331800
H            3.16317004239184        1.48744421199072        1.78960616064262
H            0.70031942384606        1.50678961415941        1.86752717000331
H           -5.24335785896276       -1.34196547958056        1.72225662323681
H           -6.57630582204363       -3.40184617599790        1.96235380456002
H           -5.97608436047519       -5.41828896590011        0.66937767529366
H           -4.62697224023354       -6.49553436565463       -1.04208096042668
H           -2.87677961347999       -6.38025135888512       -2.77491136021284
H           -1.69582362309634       -4.25338687308712       -3.18915346446447
H           -2.17595313122947       -2.28403219418834       -1.82914839758711
H           -2.34284652690181        3.70954164729993        1.35481424106237
H           -3.63842474389429        5.72334145866434        1.76273751515548
H           -6.03065300380511        5.82436884496101        1.14438195031679
H           -8.00526362277400        4.76262784479094        0.24896873864565
H           -9.10819635260534        2.86240489987219       -0.87331118407035
H           -7.79555225464572        0.83880388445085       -1.42364482311372
H           -5.42135846654848        0.71855972794508       -0.86625810601541
H            0.57297196079200       -1.03049961056568       -1.57018229549044
H            3.03434651782769       -1.03910097565261       -1.65566677973141
H            3.54108746961427       -1.91203338458357        1.08843902664182
H            4.68598711691073       -3.89201759669469        1.93511620895121
H            7.16305601366499       -4.02153590418443        1.84765287232106
H            8.44511802730483       -2.15609431740380        0.93751935279878
