84
 energy: -130.818848645027 gnorm: 0.000081667852 xtb: 6.7.1 (edcfbbe)
C            8.36580334767180       -0.20395682927604       -1.36674596674866
C            7.54997997008399        0.26150619504100       -0.14584883463066
C            8.49254952995171        0.74675534887592        0.97178658898348
C            6.66098134107830        1.41487464864841       -0.57116879054455
C            7.24163298648905        2.56819569496433       -1.08291281718532
C            6.48694772434887        3.64123416945559       -1.51921433367928
C            5.10714393017448        3.56160246365756       -1.46402731706491
C            4.50432903196702        2.42838672857741       -0.95900138328599
C            5.26589943036996        1.35458332572497       -0.48716829472934
N            4.63062802416653        0.22932361649938        0.02583027205406
C            3.21767487933967        0.21099924972388        0.10516528493934
C            2.55624283008201        1.01807800010746        1.02665766952367
C            1.17846822554996        1.00427992946576        1.09890172931274
C            0.43716190422038        0.17132495025186        0.26280014829589
C           -1.02696652114859        0.14915369367510        0.34739964431515
C           -1.72677725915893       -1.06094617122080        0.44315417136882
C           -1.04025274454379       -2.28132898647326        0.61083710662535
N           -0.49456561221444       -3.27150620953013        0.81104771037419
C           -3.13860622414576       -1.03550657916316        0.47050361775413
C           -3.91995084158807       -2.27749125718925        0.51035557086730
C           -4.85109282850475       -2.43121947116156        1.51245746362712
C           -5.54985260491847       -3.63408586089400        1.66322355559029
C           -5.31858732403255       -4.67426788968808        0.80619603688010
C           -4.41317404719853       -4.53853069869521       -0.26715426278053
C           -4.20075089870921       -5.58720458434173       -1.18733499819077
C           -3.35601879294622       -5.42885741553372       -2.24939172340016
C           -2.70555617152839       -4.20278468450604       -2.45167939028588
C           -2.88245721432256       -3.17067561041870       -1.57232135179507
C           -3.71102967054933       -3.31543058448071       -0.43946171193734
N           -3.80865296136664        0.10255837680569        0.52806530821676
C           -3.17930168722748        1.26722380770453        0.48698975937885
C           -3.97587022754214        2.49070572406515        0.62550964551609
C           -3.52849937550419        3.46698755215290        1.49061300768222
C           -4.25218624515732        4.64688017648342        1.68940855142098
C           -5.42290110124280        4.85382387213707        1.01447353839055
C           -5.91892313517576        3.88469665530554        0.11792017055564
C           -7.12372624178006        4.09360285131446       -0.58721567939592
C           -7.59651513179491        3.15631325180524       -1.46161396343516
C           -6.87853910557618        1.96983587556499       -1.67145944582465
C           -5.70746682285425        1.73682497768024       -1.00383309843853
C           -5.19736955806695        2.67624616540579       -0.08412989912167
C           -1.77572509289510        1.33542081506792        0.33523440088420
C           -1.14041044321062        2.56774156025106        0.07835122771011
N           -0.62656484260052        3.55904008817916       -0.19088842972520
C            1.10267596780501       -0.64326406020889       -0.65158932552987
C            2.47951425363192       -0.61648175951587       -0.73652622812337
C            5.34629320155063       -0.88051796857313        0.46062641407943
C            4.66920229905180       -1.96918326595916        1.01918829160399
C            5.35157358668968       -3.08865660515280        1.44782708396948
C            6.72953226283723       -3.13909937684488        1.33818207306695
C            7.40405288289153       -2.05073461556141        0.81687196030294
C            6.74244205767877       -0.91058439330185        0.37919033016183
H            9.02416935856725       -1.02648245279762       -1.10197218083884
H            7.69398071731666       -0.54075750849251       -2.15459061513512
H            8.97424750511745        0.60626758267873       -1.75847894710442
H            7.91004192295450        1.07860312909615        1.82979620247196
H            9.10360973721635        1.57733163418677        0.62976056110375
H            9.15416074142119       -0.05190381155940        1.29517705027480
H            8.31694105706077        2.63549463597667       -1.14778027564622
H            6.97151949662300        4.52415895907094       -1.90811236105024
H            4.49374681916616        4.37774070774252       -1.81656320231119
H            3.42668038172381        2.37528724876369       -0.93540030287269
H            3.12899134006363        1.65591307638353        1.68283627000912
H            0.67469431214776        1.62236678247358        1.82751294305433
H           -5.01537365710621       -1.62012973166458        2.20621590386068
H           -6.25934054448813       -3.73394706767866        2.47078534092430
H           -5.83605346093536       -5.61438194150340        0.92989285711919
H           -4.72931217556261       -6.51756793466444       -1.03850807469623
H           -3.19637958992615       -6.23607536155273       -2.94867358195675
H           -2.06587329965908       -4.07545614094900       -3.31276299392636
H           -2.39702634216096       -2.22296159403489       -1.75925641168487
H           -2.61831665078755        3.31209029852635        2.05311104041701
H           -3.87508180890520        5.38530425341751        2.38068918783827
H           -5.98798049653648        5.76281219970505        1.16054523360790
H           -7.66269358942344        5.01539966100451       -0.42246583486802
H           -8.51895285109651        3.32283424425544       -1.99810664005605
H           -7.25603565725733        1.23613720660388       -2.36856626991388
H           -5.16944741783285        0.81668481257383       -1.16871675953940
H            0.53879727196863       -1.28026154856731       -1.31718637492547
H            2.99263878751981       -1.23949431799823       -1.45345184739224
H            3.59546700309685       -1.93870582391439        1.12396230376888
H            4.80165611876229       -3.91660783392964        1.87055572428467
H            7.27568741974953       -4.01136840731564        1.66442418094197
H            8.48068069604902       -2.09513297156046        0.75391058641365
