84
 energy: -130.752945126222 gnorm: 0.000040946866 xtb: 6.7.1 (edcfbbe)
C            8.75614071601275       -0.30386086931216       -1.21352859654486
C            7.87179543353234       -0.00434066557159        0.01376978272989
C            8.75453612497223        0.29402600843865        1.24249160158891
C            7.02776827103990        1.21656922994725       -0.28008693158442
C            7.64224445365070        2.42682974270854       -0.57230318859861
C            6.91325696446895        3.57150829469687       -0.83923782790397
C            5.52632751017132        3.52380235042746       -0.81353158958764
C            4.88736856988410        2.33863997443670       -0.52870212003302
C            5.62345514825413        1.17359254084029       -0.26300004289448
N            4.95869711315262       -0.00259986715182        0.01066297965369
C            3.53239459918443       -0.00177706036412        0.00902833394443
C            2.84052084775252        0.26780179466280        1.18258858811485
C            1.45883484435141        0.26988419460167        1.17772843163079
C            0.76201207743297       -0.00026062707823        0.00588989535381
C           -0.71781666047982        0.00067439212536        0.00417472232903
C           -1.40426223443192       -1.21113362653758       -0.08768947884232
C           -0.66974207235849       -2.37219903958487       -0.31538012424365
N            0.00165453786528       -3.29227765503937       -0.51409680218741
C           -2.85516314835199       -1.17206154166140       -0.02889547022674
C           -3.66500209120659       -2.36790012400916       -0.00102077887919
C           -3.17779455892818       -3.50616454196771        0.63780147592135
C           -3.94943143295688       -4.65371979539953        0.77479257599511
C           -5.22785834558661       -4.69568748819846        0.27419093027022
C           -5.76970935991975       -3.57777243105054       -0.39239297987005
C           -7.08155466507681       -3.61078816764040       -0.90884525659475
C           -7.60703238895461       -2.53760022697273       -1.57947322100226
C           -6.82884176604622       -1.39358299874733       -1.77230383573868
C           -5.54661217214085       -1.33403382067078       -1.28203220927259
C           -4.98848950730274       -2.39905141478829       -0.55406177407151
N           -3.44887805463400        0.00252352195696        0.00086516538905
C           -2.85362207692441        1.17622847333012        0.03197295741739
C           -3.66177834850472        2.37322238471239        0.00173469689841
C           -3.17180843293426        3.51026721006944       -0.63704551057642
C           -3.94167864254172        4.65875265797387       -0.77645923724910
C           -5.22093751669498        4.70285963075432       -0.27822614223054
C           -5.76550056477313        3.58625297859717        0.38834817326338
C           -7.07817516522465        3.62149812964906        0.90254490687629
C           -7.60626171772303        2.54957934799423        1.57312725236660
C           -6.82999025548380        1.40461641731820        1.76818743069663
C           -5.54705184706247        1.34286248329583        1.28010692745458
C           -4.98620099854890        2.40658701671201        0.55231601012764
C           -1.40285886751078        1.21342606824540        0.09433922325883
C           -0.66756584701183        2.37367792133139        0.32360239904079
N            0.00429419282850        3.29309430624253        0.52380529173703
C            1.46118966781638       -0.27117108283124       -1.16436665646044
C            2.84288722552098       -0.27058355681277       -1.16610169571114
C            5.62146047742981       -1.17953085313655        0.28599289827882
C            4.88342572659775       -2.34368284451470        0.55021123460731
C            5.52036772426446       -3.52955698112198        0.83659829458872
C            6.90717785410435       -3.57888191627968        0.86539523979735
C            7.63809542553278       -2.43510888408229        0.59986866631843
C            7.02568484572270       -1.22415973472092        0.30616418491771
H            8.13198135442076       -0.52476917091723       -2.07722999014116
H            9.38488255545311        0.54844219204258       -1.45191465155477
H            9.39740321186002       -1.15929380333700       -1.02482181415341
H            9.38175205162260       -0.55909676455128        1.48194818412004
H            8.12924962467963        0.51581186351468        2.10514491393002
H            9.39727669489157        1.14857098204004        1.05481077770251
H            8.71894068258684        2.48436285383389       -0.59294282626221
H            7.42199962828900        4.49636553644030       -1.06336135712451
H            4.94281747251446        4.40914869435619       -1.01427059688248
H            3.80942001959568        2.30586562124654       -0.50598066362943
H            3.38392511772909        0.47626978353468        2.09175863648046
H            0.91604572281264        0.47970878517598        2.08760446988484
H           -2.19230054498852       -3.48836974402348        1.07880184401655
H           -3.53526669400413       -5.50786494901851        1.29049201698562
H           -5.83193649819215       -5.58475131386446        0.38033653638352
H           -7.66829735853864       -4.50635894183702       -0.76074678722847
H           -8.61379369481796       -2.57515459231875       -1.96938774362697
H           -7.23368573392163       -0.55331889033929       -2.31722420748461
H           -4.95547679790972       -0.44893154748886       -1.45558725181219
H           -2.18547590155561        3.49076200106011       -1.07611610113775
H           -3.52542856081962        5.51189548843509       -1.29213903001834
H           -5.82363928979623        5.59263289978988       -0.38626597468586
H           -7.66341741622646        4.51776859031308        0.75277099559974
H           -8.61361941936268        2.58885611145777        1.96132828293672
H           -7.23694092747667        0.56536330254814        2.31309765064488
H           -4.95747511326539        0.45703596838341        1.45525751775292
H            0.92022814935287       -0.48044789731860       -2.07545821265564
H            3.38810510152106       -0.47956292435389       -2.07406934797448
H            3.80557087917881       -2.30966287743461        0.52508201979638
H            4.93538897468359       -4.41420036508539        1.03615548844916
H            7.41433947090311       -4.50430484528323        1.09075933411789
H            8.71467584248328       -2.49394108748685        0.62282706321048
