84
 energy: -130.817589477824 gnorm: 0.000153146273 xtb: 6.7.1 (edcfbbe)
C            8.22951263097924       -0.32222234660672       -1.28831783622985
C            7.37554928067231       -0.08490231341172       -0.02853780810581
C            8.28334374576672        0.15607628706075        1.19257102404719
C            6.51831991725475        1.14625658429142       -0.25394383886312
C            7.13180566742490        2.36125325560268       -0.53100365490250
C            6.40722862203140        3.51103143328020       -0.78437611154676
C            5.02526606721256        3.45089001055738       -0.78286235735966
C            4.39032322717765        2.25797753071602       -0.50665472498419
C            5.12085615020351        1.10139726190028       -0.21600345282802
N            4.45237536717680       -0.08373532150661        0.07059203280380
C            3.03972094306498       -0.07211882275151        0.15379186961198
C            2.40825463040326        0.58271556435645        1.20767555671151
C            1.03103097950215        0.60709858521149        1.28451642221819
C            0.26104620044303       -0.04159477394340        0.32123602825435
C           -1.20374777941879       -0.01879327567937        0.41190273670896
C           -1.95526690747921       -1.20090928289773        0.37671621136988
C           -1.33108980306725       -2.46236048543712        0.29785083968357
N           -0.83874462385192       -3.49816288182821        0.24460916836144
C           -3.36141258789170       -1.11565576692702        0.41813113127323
C           -4.18264171358490       -2.34043606711064        0.37257900239331
C           -4.11393817636657       -3.22361700427420        1.42315787476709
C           -4.91947278986761       -4.36945770786784        1.44845722157524
C           -5.78475124018433       -4.62555943174313        0.42212403566496
C           -5.86593353087962       -3.75668131524766       -0.68620399599583
C           -6.73282588029038       -4.01566713922093       -1.76935423491485
C           -6.77568708170942       -3.17904421018731       -2.84909510166836
C           -5.94269757792524       -2.05091627134357       -2.89992711128322
C           -5.09615587272423       -1.76898055258385       -1.86404202549347
C           -5.04736282919166       -2.59671756944841       -0.72306064691622
N           -3.98930023646543        0.03894660542108        0.54979633708513
C           -3.31030683145120        1.17388088377700        0.64786668790019
C           -4.04486334526904        2.41392333133415        0.91892139796242
C           -3.53730550209495        3.26658592980228        1.87803332936137
C           -4.17887145676000        4.46664692404229        2.19834068001894
C           -5.32945668475552        4.82166002586044        1.55106253299050
C           -5.89284429595499        3.97855882647073        0.57124275465567
C           -7.08284120943173        4.33628854191635       -0.09833451082629
C           -7.62898741961466        3.51697066352537       -1.04550043690037
C           -7.00391519014093        2.30254473318571       -1.36371650135262
C           -5.84644668812075        1.93013252354349       -0.73689665044248
C           -5.25845075367395        2.74690281594476        0.24984856472313
C           -1.90034158239192        1.19096599368589        0.53822944353291
C           -1.19473960624608        2.40904681576349        0.43823616855488
N           -0.61475819186146        3.38927228695549        0.29141158405931
C            0.89466234056932       -0.70770731021248       -0.72538918950333
C            2.27192469106141       -0.71328693355029       -0.81443701897577
C            5.13649172451644       -1.27283298496910        0.29724078988997
C            4.42711713836128       -2.43290322989100        0.62386175757124
C            5.07860282698041       -3.62867230910628        0.84348531924298
C            6.45746490982653       -3.68856242580091        0.75191948018588
C            7.16359779516589       -2.53603390354447        0.46179237403836
C            6.53349447731992       -1.31872607960833        0.23707213675119
H            8.85601426326340       -1.20206389596154       -1.17248251223360
H            7.58293153090626       -0.47136581327645       -2.15153383011534
H            8.87382328375353        0.52962925625281       -1.48635733923094
H            7.67516987113675        0.30159729673777        2.08395589755536
H            8.89879322856594        1.03978152459469        1.04897084298580
H            8.93969025579243       -0.69314335402947        1.36084302631090
H            8.20951385545933        2.41685573217790       -0.55366065995517
H            6.91696822472349        4.43975962626331       -0.99241970255158
H            4.43536424294299        4.32945878394676       -0.99905561264115
H            3.31171537021830        2.22295669662187       -0.52234957861223
H            3.00380210348343        1.07576330778112        1.96102377458194
H            0.54946145264800        1.10944709150141        2.11072532899410
H           -3.44868321493250       -3.02402344947312        2.25172608475220
H           -4.85042809303694       -5.04024790379244        2.29150867169920
H           -6.41467376285617       -5.50289318078816        0.44083187032950
H           -7.35741667428828       -4.89636318742373       -1.73016040028326
H           -7.44146962560126       -3.38457958002983       -3.67421778835956
H           -5.96959741650596       -1.40833970367137       -3.76788955352072
H           -4.44400933287705       -0.90881615872263       -1.91715823643329
H           -2.64207824982830        2.99646248711826        2.42031881570402
H           -3.75314755514623        5.10393074654359        2.95849834803790
H           -5.82788244323709        5.75085093864536        1.78564107547070
H           -7.55263911729582        5.27562154477478        0.15534996731748
H           -8.54052868451867        3.79669422849911       -1.55264300768391
H           -7.44355097427974        1.65812789110459       -2.11054077471798
H           -5.38380311158325        0.98808746458798       -0.97872950254083
H            0.30552805715604       -1.19802176941920       -1.48659294116403
H            2.76153290654621       -1.21722552712743       -1.63409126823858
H            3.35223140334941       -2.39885034227426        0.71362814252443
H            4.50421043892779       -4.50976539564935        1.08922691634646
H            6.97982321929043       -4.61889670825916        0.91684171939256
H            8.24050260322841       -2.59119234466971        0.41417294141503
