  50
  -79.3360051200000       0.487261257934781      !
 C          5.3066212130       -2.7371912432       -1.2918957942
 C          3.9525282569       -2.9889449264       -1.5028757241
 C          2.9827069776       -2.0763551937       -1.1349628545
 C          3.3983917203       -0.8949817316       -0.5372604813
 C          4.7715496616       -0.6208294806       -0.3399014999
 C          5.7275887013       -1.5543943962       -0.7181977208
 C          4.8455233060        0.6860105925        0.2502647729
 C          5.8984304084        1.4831227409        0.6795784280
 C          5.6127244635        2.7138028486        1.2356560984
 C          4.2963315096        3.1466324515        1.3798303702
 C          3.2321399107        2.3722960348        0.9600358339
 C          3.5139727508        1.1443321546        0.3784054135
 N          2.6510779983        0.1799280642       -0.1006921280
 C          1.2518614274        0.2784346738       -0.1433640924
 C          0.6598590949        1.4038410707       -0.7213548035
 C         -0.7147879970        1.5445476034       -0.7768716206
 C         -1.5001142479        0.5317584476       -0.2581278708
 C         -0.9063910852       -0.6328337647        0.3276130243
 C          0.4709071903       -0.7437135354        0.3866215507
 C         -1.9841273961       -1.5003567922        0.7710116899
 C         -2.2541546638       -2.7200184423        1.3846631356
 C         -3.5899380992       -3.0833612844        1.5719193254
 C         -4.6949989801       -2.3170550938        1.1904726217
 C         -4.4660380297       -1.0910358978        0.5739513694
 C         -5.1297892526        0.0646813760       -0.0064466684
 C         -6.4623712955        0.4030696891       -0.1725325563
 C         -6.7783720580        1.6073976323       -0.7777806767
 C         -5.7839826077        2.4728463599       -1.2161314997
 C         -4.4418432119        2.1642883767       -1.0653336317
 C         -4.1144728031        0.9643974808       -0.4631191132
 N         -2.8768058492        0.4045649248       -0.1851532092
 C         -3.1212815352       -0.7891172131        0.4180171919
 H          6.0337268255       -3.4775561573       -1.5911935717
 H          3.6544718418       -3.9171831134       -1.9679600954
 H          1.9369412748       -2.2733369233       -1.3179123311
 H          6.7773885961       -1.3529691570       -0.5674235217
 H          6.9176076607        1.1407924198        0.5823495896
 H          6.4170214730        3.3502854000        1.5734014881
 H          4.1032741344        4.1081344675        1.8326164042
 H          2.2145680586        2.7084616225        1.0918490749
 H          1.2947563388        2.1693663249       -1.1408623731
 H         -1.1582455210        2.4208331352       -1.2233377774
 H          0.9364566218       -1.6022555265        0.8460035942
 H         -1.4673325473       -3.3811706264        1.7150359281
 H         -3.7846876045       -4.0331743655        2.0497781276
 H         -5.6919352180       -2.6856480724        1.3785373353
 H         -7.2393892733       -0.2657537656        0.1661410172
 H         -7.8141578897        1.8810252329       -0.9123118813
 H         -6.0611810756        3.4056700035       -1.6841642501
 H         -3.6759749432        2.8424237639       -1.4089137724
  50
  -79.3359991100000       0.484172230800753      !
 C          5.5525093207       -1.4995774640       -2.6999515608
 C          4.2292253573       -1.6286413827       -3.1167972734
 C          3.1832462438       -1.1331016503       -2.3623508940
 C          3.4909878533       -0.4902344098       -1.1717142634
 C          4.8293852257       -0.3733271058       -0.7300254865
 C          5.8634176708       -0.8806374916       -1.5058663443
 C          4.7826048054        0.2964120501        0.5392062079
 C          5.7561439763        0.7045690678        1.4415774891
 C          5.3603874462        1.3611100369        2.5895897037
 C          4.0145492110        1.6238148479        2.8371516522
 C          3.0275992551        1.2270537407        1.9555429201
 C          3.4176045120        0.5475562818        0.8101723015
 N          2.6497498666        0.0690675703       -0.2317707340
 C          1.2497535019        0.1276284273       -0.3119762291
 C          0.6462798668        0.6551314687       -1.4557312841
 C         -0.7299858672        0.7225306702       -1.5761632128
 C         -1.5047395620        0.2656735024       -0.5260321668
 C         -0.8984353917       -0.2694534971        0.6563987457
 C          0.4795551379       -0.3394678699        0.7483185413
 C         -1.9662459734       -0.6590224226        1.5610402856
 C         -2.2223750571       -1.2155753244        2.8107193182
 C         -3.5539492734       -1.3741664374        3.2023689260
 C         -4.6674463507       -1.0173547742        2.4363972892
 C         -4.4522278466       -0.4575310489        1.1809893642
 C         -5.1290806391        0.0730776530        0.0091213569
 C         -6.4655194631        0.2347512167       -0.3161135990
 C         -6.7956243284        0.7847734250       -1.5429626749
 C         -5.8113738348        1.1726995670       -2.4434233375
 C         -4.4656830239        1.0251823006       -2.1485821951
 C         -4.1241632091        0.4777935869       -0.9265502516
 N         -2.8799877841        0.2162364768       -0.3727590458
 C         -3.1110592003       -0.3268442968        0.8521575941
 H          6.3420058359       -1.8983083212       -3.3196102022
 H          4.0160582962       -2.1302384771       -4.0494427810
 H          2.1597826649       -1.2532635332       -2.6849792115
 H          6.8877876189       -0.7918830522       -1.1765308513
 H          6.7999528699        0.5122645110        1.2432722957
 H          6.1012757024        1.6841619126        3.3058694162
 H          3.7366706775        2.1523822087        3.7372823981
 H          1.9884947502        1.4492047187        2.1479412026
 H          1.2732946186        1.0260570563       -2.2522538341
 H         -1.1824862821        1.1309168758       -2.4663265125
 H          0.9540806931       -0.7601251794        1.6217134990
 H         -1.4281401473       -1.5235403166        3.4737721237
 H         -3.7380070886       -1.8081631395        4.1751280970
 H         -5.6602430984       -1.1809236743        2.8274721963
 H         -7.2344921566       -0.0651737413        0.3799501264
 H         -7.8345305942        0.9154462268       -1.8066295251
 H         -6.0994392559        1.5983733167       -3.3931123137
 H         -3.7079112140        1.3296204520       -2.8540694392
  50
  -79.3333245500000       2.856651126446649E-002 !
 C          5.4172060669       -2.2724285259        2.0449697973
 C          4.0740699252       -2.4953763126        2.3439798832
 C          3.0723107880       -1.7481458591        1.7559196972
 C          3.4496732575       -0.7644922376        0.8539048990
 C          4.8089033525       -0.5287026771        0.5404816882
 C          5.7962723484       -1.2946031084        1.1470070978
 C          4.8235674240        0.5434190887       -0.4146701171
 C          5.8311152882        1.2215009265       -1.0886734488
 C          5.4796840771        2.2332561300       -1.9599780013
 C          4.1442858667        2.5751194370       -2.1669945845
 C          3.1228321947        1.9176490318       -1.5096705028
 C          3.4722775926        0.9012548659       -0.6330740076
 N          2.6598241955        0.1027660109        0.1367143216
 C          1.2504899144        0.1876428118        0.2144518454
 C          0.6726050025        1.0003226812        1.1889510828
 C         -0.7013831169        1.1105888767        1.3064332627
 C         -1.4924183165        0.3897756149        0.4304348449
 C         -0.9091029241       -0.4485502324       -0.5753772590
 C          0.4683398112       -0.5392952233       -0.6729402152
 C         -1.9946896988       -1.0650647928       -1.3178836258
 C         -2.2764026149       -1.9418534701       -2.3619235625
 C         -3.6154663946       -2.1987597365       -2.6648317487
 C         -4.7134534445       -1.6440883708       -2.0004473640
 C         -4.4725754277       -0.7627045186       -0.9514649087
 C         -5.1255725717        0.0678850239        0.0474184991
 C         -6.4550789533        0.3127879047        0.3477884205
 C         -6.7600442652        1.1765004519        1.3860181669
 C         -5.7578881232        1.7946223147        2.1230636825
 C         -4.4183952077        1.5709442161        1.8480685886
 C         -4.1023576330        0.7106463256        0.8141820933
 N         -2.8689860600        0.3063956767        0.3235931884
 C         -3.1250128171       -0.5490045558       -0.7021793669
 H          6.1705353533       -2.8783064164        2.5265434091
 H          3.8121890748       -3.2695927550        3.0502440148
 H          2.0307978968       -1.9196907530        1.9857239991
 H          6.8377086427       -1.1255717666        0.9177780173
 H          6.8668346370        0.9602950302       -0.9308457578
 H          6.2492372213        2.7727502609       -2.4921988516
 H          3.9044900851        3.3723279377       -2.8553236950
 H          2.0872162024        2.1812732680       -1.6681832071
 H          1.3189594134        1.5481838105        1.8582253242
 H         -1.1400566025        1.7422196740        2.0629206173
 H          0.9339781390       -1.1637418605       -1.4204290544
 H         -1.4958729143       -2.4212168311       -2.9329244098
 H         -3.8195320613       -2.8817142049       -3.4774681948
 H         -5.7139149367       -1.9073139482       -2.3085994686
 H         -7.2381940552       -0.1645843474       -0.2219165120
 H         -7.7932689913        1.3742037053        1.6289677347
 H         -6.0265537608        2.4636297475        2.9269430317
 H         -3.6464999067        2.0556121332        2.4257679787
