140
 energy: -231.605840861258 gnorm: 0.000018653502 xtb: 6.7.1 (edcfbbe)
F            3.12936968865800       -2.23633098635403       -2.42594773093004
C            2.68523448068855       -2.97635149572004       -1.39725768773374
C            2.61351777590720       -4.34848347026068       -1.54189565988912
C            2.14787624138440       -5.11616618648512       -0.48885083818279
C            1.77330497900396       -4.51459148082643        0.69960338334815
C            1.87214952021072       -3.14117710117191        0.82306711682229
F            1.52057635742539       -2.57010332564236        1.98913578569199
C            2.31494005885463       -2.32576400792545       -0.21917218438213
N            2.38910430807030       -0.91890660118410       -0.11587087131287
C            1.21213818107499       -0.18062701101693       -0.08762266647465
C           -0.00041854141817       -0.85286264074867       -0.00369612418979
C           -1.21222878812828       -0.17912082797327        0.07972661572819
C           -1.22646632632307        1.23317507092728        0.16607552217469
C            0.00093546795228        1.86839664769320       -0.00601776680346
C            1.22766248598658        1.23148039925632       -0.17651456040779
B            2.57724551896901        1.93358544034218       -0.43072858330375
C            2.90033751112224        3.40142485289968       -0.78658995698422
C            1.95978433567327        4.35558856476242       -1.19618029168316
C            2.28527699362702        5.67527121269761       -1.41356239892928
C            3.59426827632145        6.09484685580241       -1.21315576125540
C            4.56303103440603        5.18365952796003       -0.86212576736984
C            4.24452035994136        3.82999550911393       -0.68473318394147
N            5.26635230891586        2.93788936920484       -0.40920445408913
C            6.59428164116643        3.42648425751497       -0.23524206011306
C            7.11431405708881        3.53922750228497        1.04778368795051
C            8.41835314500423        3.96329129919710        1.22837965632999
C            9.20424765250418        4.27903441964212        0.13294269690654
C            8.68389989233408        4.17289883388275       -1.14632030285609
C            7.38206317533891        3.74434498238333       -1.33455361043335
C            5.09428107849736        1.57535909857957       -0.29563441670826
C            6.20869715376697        0.74310595639789       -0.21167106027584
C            6.04373308127849       -0.62005260055376       -0.00968815075422
N            7.16254056404719       -1.44895596915338        0.11852114615762
C            7.11728944646743       -2.75910514620667       -0.36894633702632
C            6.42863220904744       -3.05599052769525       -1.54587860753689
C            6.36442549269352       -4.35629135886597       -2.00537486830661
C            6.99175992481559       -5.37912552883376       -1.31278640164125
C            7.68940943217221       -5.08787921909800       -0.15212543602529
C            7.75125818661966       -3.79180928074386        0.32172840370107
C            8.33051368504135       -0.95777290267969        0.71138444794241
C            8.26093610952936       -0.08963693975795        1.80144102049167
C            9.41538897874665        0.41615626320069        2.36437149877943
C           10.65631021931937        0.05755365966565        1.86381995484855
C           10.73225386891771       -0.81600817491629        0.79172755767047
C            9.58241837023592       -1.31867793074298        0.21439251080072
C            4.76621223805266       -1.16659835188532        0.06916657528993
C            3.65477213952221       -0.35475935149570       -0.11835616490765
C            3.79199982618264        1.03727076717147       -0.28011706248066
B           -2.57525546214529        1.93707125807094        0.42012386693886
C           -2.89679395767311        3.40626381244406        0.77222792159384
C           -1.95493342183059        4.36163264286603        1.17602655792064
C           -2.27939344946435        5.68218638777140        1.38966574067882
C           -3.58879030139140        6.10155080114091        1.19151133704936
C           -4.55877357886154        5.18939816036705        0.84647902595361
C           -4.24108796759696        3.83506053533939        0.67269711070793
N           -5.26412050252533        2.94257101307161        0.40318837831760
C           -6.59269825762129        3.43121254422799        0.23409038635244
C           -7.11758404342150        3.54429561302389       -1.04690716327337
C           -8.42235276478927        3.96831875177992       -1.22237139568424
C           -9.20413024248360        4.28351737050240       -0.12383862142534
C           -8.67890789543439        4.17704433783806        1.15340687120604
C           -7.37628162117026        3.74869812276527        1.33650901061574
C           -5.09296883630468        1.57973098230721        0.29244342955095
C           -6.20809935410865        0.74787093841711        0.21398468288129
C           -6.04446449490388       -0.61582992426773        0.01476300525402
N           -7.16373705921921       -1.44503510801770       -0.10677803804339
C           -7.11579811174736       -2.75412533231272        0.38353741937532
C           -6.42336632359198       -3.04769120681014        1.55906400122033
C           -6.35645329350186       -4.34691591535872        2.02120956403487
C           -6.98470538353006       -5.37189758591787        1.33263453149960
C           -7.68613697171947       -5.08390973741434        0.17343974625564
C           -7.75082024272686       -3.78891332408617       -0.30298891838546
C           -8.33506801126753       -0.95556429735748       -0.69428393896477
C           -9.58404726400483       -1.31697621766646       -0.19030403083738
C          -10.73735368430645       -0.81620111638525       -0.76231152225303
C          -10.66782082673147        0.05598578602046       -1.83595792384043
C           -9.42985859547736        0.41508205943939       -2.34343858674467
C           -8.27198877026300       -0.08885766067539       -1.78587218804239
C           -4.76741647108234       -1.16299165680495       -0.06741072300995
C           -3.65497191941375       -0.35138760930179        0.11505568691463
C           -3.79091385048279        1.04108734074579        0.27434414379464
N           -2.38972672563702       -0.91637219656270        0.11022356789944
C           -2.31623454029548       -2.32330050398047        0.21355377311682
C           -2.68367596216499       -2.97373531160230        1.39259305704450
F           -3.12428792711542       -2.23353014005621        2.42263790075990
C           -2.61269235835606       -4.34596876168598        1.53673523799520
C           -2.15067498832132       -5.11382168793549        0.48222457316460
C           -1.77875739150415       -4.51233669214021       -0.70711711612443
C           -1.87676791909490       -3.13881880269734       -0.83000079127260
F           -1.52752933330463       -2.56763129917540       -1.99669494734367
H            2.91269048594653       -4.79475874147993       -2.47603520710675
H            2.08027567175298       -6.18700688966723       -0.59275200989318
H            1.41351753176999       -5.09116441187956        1.53640707070911
H           -0.00107708724854       -1.93016587088352       -0.00301791777568
H            0.00166023576395        2.94396816126870       -0.00720225284622
H            0.94341374064097        4.03801184888618       -1.36725239234093
H            1.53015462289514        6.38109366604429       -1.72691445528617
H            3.86120630447304        7.13319137645836       -1.34797221109831
H            5.58062414750249        5.52018842357352       -0.73043853033037
H            6.49256844011170        3.28522648094274        1.89344870581380
H            8.82231162583113        4.04689936508391        2.22607658588743
H           10.22292595305005        4.60681376076529        0.27553271243261
H            9.29584460309565        4.41840209960294       -2.00152687249290
H            6.96828080527134        3.64987998937079       -2.32773544885153
H            7.20681769890274        1.14124899555465       -0.29932039139658
H            5.94694980338216       -2.26112059572969       -2.09537040417353
H            5.83045797829237       -4.56928112522132       -2.91991552460357
H            6.94150741872744       -6.39428500087155       -1.67673767823071
H            8.18261945106717       -5.87807786245813        0.39495630525797
H            8.28668346184032       -3.56937920111696        1.23326548677297
H            7.29523953250872        0.18336602345765        2.20007372363441
H            9.34574774069040        1.08828176839622        3.20701356979400
H           11.55721739520380        0.45387708981896        2.30711708680336
H           11.69517334154266       -1.10098145444345        0.39362523247989
H            9.64472687489978       -1.98910555298431       -0.63041076851299
H            4.66239337055687       -2.22147277473634        0.27402264499678
H           -0.93818678777703        4.04451410225708        1.34557981401269
H           -1.52313709760485        6.38882483524201        1.69841383874475
H           -3.85501820929257        7.14045016101500        1.32342350734146
H           -5.57670833307429        5.52564074807985        0.71665509250040
H           -6.49902279667521        3.29068609309963       -1.89502097420994
H           -8.83011020978849        4.05228438408617       -2.21849465541196
H          -10.22340439334192        4.61115748908432       -0.26243339370308
H           -9.28764070978237        4.42212560160242        2.01102113152531
H           -6.95862356330861        3.65402555985316        2.32804523380150
H           -7.20569939839109        1.14675370050913        0.30404934747823
H           -5.94082406900304       -2.25112063460843        2.10532486983542
H           -5.81964367225273       -4.55732538191479        2.93468031401272
H           -6.93227340950723       -6.38622239739331        1.69860485804604
H           -8.18011608535899       -5.87582189556521       -0.37045795617347
H           -8.28927966915484       -3.56891869485164       -1.21333127890781
H           -9.64131788677847       -1.98629630723457        0.65573472763642
H          -11.69790734645271       -1.10156393425313       -0.35880658429411
H          -11.57140141810602        0.45084727277572       -2.27509752513157
H           -9.36525915144282        1.08615433174134       -3.18732147949455
H           -7.30865685517130        0.18450261629840       -2.18994340554154
H           -4.66480774271966       -2.21833496626173       -0.27039852431341
H           -2.90966937269956       -4.79220696515874        2.47158868386632
H           -2.08378366807023       -6.18475085845443        0.58568860955167
H           -1.42166919340291       -5.08904309959238       -1.54498298472181
