140
 energy: -231.525209023200 gnorm: 0.000125036540 xtb: 6.7.1 (edcfbbe)
F            3.16740209980076       -2.38720523464527       -2.22964534484180
C            2.69288480769431       -3.05544833621042       -1.16059120700783
C            2.60348387574734       -4.42880212882053       -1.21227630313684
C            2.10680514484401       -5.12146753847530       -0.11550850564637
C            1.72091558453765       -4.43048753997625        1.02598543350505
C            1.83400480563172       -3.05785698691473        1.05596931345010
F            1.46895522059551       -2.39422835907348        2.17106667029861
C            2.30794486705178       -2.31747315148960       -0.03449207483939
N            2.38619637711090       -0.90489319466688       -0.02502199528227
C            1.21555668173247       -0.17297107727050       -0.04650596526355
C            0.00050067684318       -0.84601457366822        0.00769107528081
C           -1.21520423146749       -0.17409017587242        0.06062077984158
C           -1.22975170653271        1.24535471721486        0.18222221088308
C           -0.00077144892092        1.88492183174670        0.00711809669067
C            1.22872488467079        1.24643693563071       -0.16864165430981
B            2.57478694779076        1.93472100326996       -0.45979694242553
C            2.89276862374897        3.38490983452601       -0.87500630793304
C            1.94708009316299        4.33200376177650       -1.29335476430588
C            2.27757571675015        5.63994639857903       -1.57400475416548
C            3.59484560452700        6.05953945834964       -1.43826676732499
C            4.56993125852745        5.15185275057113       -1.08210349062437
C            4.24546664210429        3.81213308430262       -0.83710826936850
N            5.26889546112582        2.92249985562803       -0.55435086437374
C            6.60608981706509        3.40796368721834       -0.46736592337538
C            7.18464944207467        3.58755933403397        0.78286335090364
C            8.49760755373043        4.01123924712956        0.87953226002263
C            9.23415921566994        4.25917106785940       -0.26665977574490
C            8.65511721226117        4.08603551489675       -1.51304984236837
C            7.34371709920676        3.65832693533748       -1.61787633787344
C            5.09322101267157        1.56890528520932       -0.35991414167572
C            6.20797996185843        0.73958081229711       -0.24803882751973
C            6.04621414516421       -0.61330858128126        0.04319886534839
N            7.16522891459415       -1.43227101829720        0.21747729232778
C            7.11871033519587       -2.76853028878794       -0.19378714027752
C            6.42038871013160       -3.13325418986430       -1.34574207586716
C            6.35386413423819       -4.45803916682267       -1.72811255547566
C            6.98727164831752       -5.43838468779902       -0.98145565088223
C            7.69324519325777       -5.08007303484070        0.15543376684084
C            7.75847524049127       -3.75873682283633        0.55215884809977
C            8.33416013753645       -0.90401070192342        0.77350584321466
C            8.26671341824125        0.03583807769262        1.80348128276378
C            9.42196759268733        0.57977522519649        2.32718151676566
C           10.66203745319201        0.19139925391350        1.84642341713353
C           10.73596713716176       -0.75196936169493        0.83456314670882
C            9.58557719810253       -1.29489410517595        0.29684242855352
C            4.76594888826937       -1.14644801352970        0.16568926066046
C            3.65123168576710       -0.34162621681967       -0.05911254123806
C            3.78686940606633        1.04165538643221       -0.29391320243195
B           -2.57687024860100        1.93265463353566        0.47092329382176
C           -2.89688947121283        3.38265510602695        0.88503929658353
C           -1.95292844266150        4.33025037986838        1.30611744754263
C           -2.28502178989166        5.63798100175001        1.58588273284171
C           -3.60219871988670        6.05671474757412        1.44659302194512
C           -4.57573558225923        5.14847707637902        1.08758146033125
C           -4.24972669630837        3.80903807997181        0.84308997600924
N           -5.27177962472385        2.91895540100126        0.55673952060281
C           -6.60884359953105        3.40406301807985        0.46535396327751
C           -7.18213747246355        3.58688932532879       -0.78681248642301
C           -8.49481844320599        4.01043943571003       -0.88786542956920
C           -9.23625491432660        4.25503905769073        0.25588594777239
C           -8.66244156478097        4.07866250071130        1.50424072741189
C           -7.35136379489914        3.65104383266513        1.61343163455932
C           -5.09484330705637        1.56556505800756        0.36213938296986
C           -6.20869666741624        0.73579198935863        0.24442968192764
C           -6.04494150239545       -0.61681356621740       -0.04726371453129
N           -7.16282008610280       -1.43580109955242       -0.22890994753096
C           -7.11761474217861       -2.77325177681345        0.17842336534291
C           -6.42459927867382       -3.14116573847039        1.33259957661808
C           -6.35868553384158       -4.46713595895834        1.71094983020576
C           -6.98764933312843       -5.44563211810891        0.95814518771191
C           -7.68858578104664       -5.08420348540679       -0.18086434799586
C           -7.75296562049573       -3.76167184294310       -0.57368698688067
C           -8.32776550452579       -0.90761993316451       -0.79338162885946
C           -9.58254475904540       -1.30054507954829       -0.32730391622681
C          -10.72921578671315       -0.75859894358672       -0.87385356278638
C          -10.64826315059245        0.18603465417014       -1.88401423973040
C           -9.40481575096291        0.57679702653618       -2.35394946671256
C           -8.25315440061104        0.03371550205442       -1.82148986985209
C           -4.76387697597769       -1.14939041973537       -0.16348371533054
C           -3.65065839847893       -0.34410788193708        0.06678588180776
C           -3.78796060225653        1.03901911101841        0.30122804121816
N           -2.38525309952851       -0.90686589114355        0.03796531611810
C           -2.30691767930719       -2.31936840718082        0.05268224754147
C           -2.69574624120916       -3.05277213606965        1.18045321591744
F           -3.17375507763960       -2.38010216149147        2.24520198515378
C           -2.60671174480865       -4.42588698490383        1.23809041310192
C           -2.10676406716276       -5.12311627933192        0.14570348151322
C           -1.71732130431210       -4.43684167285900       -0.99740479737501
C           -1.82994058070769       -3.06430539709947       -1.03334192169627
F           -1.46161203399679       -2.40544126300029       -2.15020605954927
H            2.91168807198543       -4.94314029510893       -2.10759918040235
H            2.02418555631723       -6.19491883798760       -0.14811380749937
H            1.33906132124308       -4.94532507320657        1.89247844553433
H            0.00100240789352       -1.92294770585759        0.00816412577005
H           -0.00125741181287        2.96042262763738        0.00736861613603
H            0.92308159687061        4.01759445835741       -1.41590343155927
H            1.51601216781041        6.33938978811988       -1.88691909498540
H            3.86423370162529        7.08883045505005       -1.62412671921123
H            5.59355664648230        5.48530114504875       -0.99935604792485
H            6.60085499697990        3.38668886998838        1.66877977022779
H            8.94709371744938        4.14704900429174        1.85152064618389
H           10.25989903436952        4.58639822004106       -0.18908383237179
H            9.22818562876049        4.27860173751277       -2.40768448347042
H            6.88392130251759        3.51239252559312       -2.58412601424309
H            7.20609299791871        1.12808745301122       -0.37141033524556
H            5.93392629167720       -2.37222062640894       -1.93725216973380
H            5.81218214459432       -4.72402106431253       -2.62374377327071
H            6.93442157719645       -6.47304955283579       -1.28468662342725
H            8.18997715431497       -5.83712755283715        0.74446309587727
H            8.29922146432478       -3.48312485188988        1.44582797942692
H            7.30189807607634        0.33134844434783        2.18812003737910
H            9.35409919993221        1.30553651010153        3.12424243079724
H           11.56360287156454        0.61830965870941        2.25871177269892
H           11.69807722750597       -1.06074214365473        0.45276439567369
H            9.64615546601305       -2.01978369741503       -0.50174961821731
H            4.65719483424158       -2.18643400898321        0.43417384346743
H           -0.92908837749506        4.01636705557701        1.43144199420390
H           -1.52478765533023        6.33791875879422        1.90091785214716
H           -3.87276156757210        7.08579600534434        1.63192042759663
H           -5.59936254468864        5.48126210462513        1.00216705765991
H           -6.59451334142706        3.38868571828097       -1.67079471368141
H           -8.94022900832893        4.14881680794737       -1.86136991784204
H          -10.26174290258731        4.58223355321422        0.17487883874183
H           -9.23935225948547        4.26861553693415        2.39696368781367
H           -6.89556275041235        3.50263891877193        2.58119166833247
H           -7.20758524936704        1.12382809143499        0.36298318543953
H           -5.94163843069495       -2.38164536213995        1.92891890649514
H           -5.82089451064651       -4.73563771567743        2.60816648880177
H           -6.93518094328350       -6.48124150097171        1.25817240296676
H           -8.18188173841877       -5.83973173170169       -0.77471426100966
H           -8.28951849241522       -3.48379544133163       -1.46917279618212
H           -9.64869805360126       -2.02649808715739        0.46987716863627
H          -11.69403071165911       -1.06921741823190       -0.50045246832059
H          -11.54701197450811        0.61204130302598       -2.30333818589830
H           -9.33134355275275        1.30369923181301       -3.14947675865824
H           -7.28566515802679        0.33095527361919       -2.19798784742302
H           -4.65312172983807       -2.18912636899160       -0.43213283969603
H           -2.91768771633882       -4.93646984913580        2.13460260134970
H           -2.02447579252907       -6.19643817176837        0.18293277749868
H           -1.33307304473375       -4.95530102142835       -1.86067321265922
