140
 energy: -231.605839999510 gnorm: 0.000061849090 xtb: 6.7.1 (edcfbbe)
F            3.08049606913256       -2.35567406128282       -2.48625718400496
C            2.64673874379225       -3.08100378940148       -1.44269500975086
C            2.56501483099625       -4.45424755925071       -1.57039846427062
C            2.10989799729533       -5.20706410666216       -0.50213356004821
C            1.75586077531272       -4.58959057986255        0.68444981643364
C            1.86438074732998       -3.21547483022875        0.79060768364443
F            1.53301565602801       -2.62913055244705        1.95497930415641
C            2.29679488814320       -2.41456133111501       -0.26721468558414
N            2.38015521510368       -1.00718334991977       -0.18140919172735
C            1.20808216637957       -0.26188657001016       -0.13763070098971
C           -0.00661455341647       -0.92619352123802       -0.02665178270716
C           -1.21208642466127       -0.24449728292426        0.08115319155024
C           -1.21540267903141        1.16810922152248        0.16422851854609
C            0.01124162910483        1.79493323722871       -0.04167652673860
C            1.22982380063845        1.14948712692611       -0.23702871516117
B            2.57760692011849        1.84096349623099       -0.52774027455695
C            2.90143230954240        3.30321657875343       -0.90516856294887
C            1.95739015516822        4.25915067076162       -1.30240288901337
C            2.28606418699628        5.57418696070809       -1.54209881911111
C            3.60219657485687        5.98719184256201       -1.37799210871766
C            4.57319176002667        5.07356090040401       -1.03974764874560
C            4.25024130648760        3.72418466532055       -0.83928359892768
N            5.27263370782789        2.82891669154140       -0.57672609786048
C            6.60701668956261        3.31152073918428       -0.43830851820887
C            7.15382622645873        3.44372809431745        0.83164108210416
C            8.46411224945096        3.86169944405363        0.97799198183254
C            9.22966945608598        4.15180974037096       -0.13872287084600
C            8.68260357430522        4.02636054623136       -1.40502840149000
C            7.37426278394552        3.60395122407559       -1.55897482063580
C            5.09494403467084        1.46915503272620       -0.44156914998377
C            6.20601080285052        0.63164375285767       -0.36639779834659
C            6.03765136377840       -0.72720800280691       -0.13940636068542
N            7.15463569249105       -1.55881856535181       -0.01436311940503
C            7.09492259896524       -2.87963557446388       -0.47047311357602
C            6.38491807518586       -3.20054773251873       -1.62823896849610
C            6.30674898766573       -4.51099789592714       -2.05566622580878
C            6.94097722904362       -5.52044920496942       -1.34985654712391
C            7.66000837063027       -5.20552807965017       -0.20858930452556
C            7.73606267949974       -3.89898781155717        0.23332141430054
C            8.33554468139938       -1.06122465480306        0.54720574398955
C            8.29028388987416       -0.17196595659056        1.62137845467316
C            9.45729520436407        0.33981427183829        2.15210039740369
C           10.68696647326430       -0.03361708552777        1.63491469101530
C           10.73894444963546       -0.92836382057171        0.57899803584029
C            9.57625704002259       -1.43728331999416        0.03372247085961
C            4.75866071799467       -1.26535600416434       -0.03111844055094
C            3.64864740672664       -0.45003203032459       -0.21193459397604
C            3.79019056926855        0.93902256433334       -0.39391209732585
B           -2.55246094025554        1.87998907352241        0.45590899539084
C           -2.85501199777255        3.35079231514686        0.81842810639591
C           -1.89568840023255        4.30114256122395        1.19187900727046
C           -2.20635754731908        5.62306147902380        1.41732402057138
C           -3.51942367471761        6.04921664186992        1.26274399201815
C           -4.50470145860183        5.14226893443280        0.94881679633150
C           -4.19962628613366        3.78657657846577        0.76336186026157
N           -5.23550735270506        2.89978359965283        0.52636294608675
C           -6.56680221304837        3.39512661801944        0.40457461772905
C           -7.13562206501098        3.51385192237198       -0.85701442467135
C           -8.44394029786388        3.94365870990281       -0.98570102000302
C           -9.18558526394367        4.25909491336335        0.14025086875250
C           -8.61646528199464        4.14721632257364        1.39808062044941
C           -7.31004900426980        3.71304141427303        1.53447135044880
C           -5.07498978441266        1.53642162947849        0.40685919320948
C           -6.19652148924400        0.71083003463246        0.36086431326505
C           -6.04712612442678       -0.65290106978810        0.15094408038544
N           -7.17480464020778       -1.47432684052096        0.05911692325411
C           -7.12121036054623       -2.78719641632965        0.53865153115864
C           -6.39508670012634       -3.09457868517394        1.69002310425429
C           -6.32457611732348       -4.39760347605018        2.14086779937430
C           -6.98223731253096       -5.41259929493359        1.46510046126119
C           -7.71683069026334       -5.11082242808239        0.33020252435103
C           -7.78559842969010       -3.81198255164229       -0.13500079080429
C           -8.36175291721787       -0.97266832153401       -0.48558369642079
C           -9.59548881755161       -1.32774781786847        0.05878830732845
C          -10.76382809492186       -0.81481125362873       -0.47034091962217
C          -10.72435990609961        0.06333068593428       -1.54064484056032
C           -9.50178105811343        0.41594524245108       -2.08837108193031
C           -8.32940851284931       -0.10009144314664       -1.57380824691028
C           -4.77621440467853       -1.20686557980005        0.02855148589978
C           -3.65421947334049       -0.40215310179587        0.18120832041920
C           -3.77706376887589        0.99079966605213        0.34721357459387
N           -2.39297758158157       -0.97451364515589        0.14001070706367
C           -2.32463723257616       -2.38220879229926        0.23579783701493
C           -2.66471253501880       -3.03642854658216        1.42090306334617
F           -3.07527355557560       -2.29920784667228        2.46540356127105
C           -2.59613973357794       -4.40964369793284        1.55688366596117
C           -2.16464331100567       -5.17461547395048        0.48745314534288
C           -1.82054467535721       -4.56925075831156       -0.70829665921965
C           -1.91543837083944       -3.19477568489230       -0.82231183857941
F           -1.59277784244648       -2.61930799455251       -1.99445163670605
H            2.84826422113067       -4.91296036314918       -2.50348520936153
H            2.03466797297331       -6.27860000736493       -0.59266948488068
H            1.40487527851329       -5.15433068577104        1.53297691906928
H           -0.01398907000777       -2.00352177734312       -0.02232259102460
H            0.01846349985823        2.87052542977832       -0.04942345151378
H            0.93521196801150        3.94636223465674       -1.44549153816328
H            1.52824471154035        6.28161685950825       -1.84515005375888
H            3.87252214771412        7.02213015001330       -1.53104424806376
H            5.59586877012015        5.40454415229719       -0.93623567681758
H            6.54775083685586        3.20951574656946        1.69422369109616
H            8.88886780419237        3.96051695746735        1.96560735322903
H           10.25328724315496        4.47467924064780       -0.02279606479217
H            9.27864497924929        4.25187873852907       -2.27680528871487
H            6.93964094005345        3.49457852217615       -2.54166491443877
H            7.20444034752115        1.02280630864703       -0.47831053624587
H            5.89782955433905       -2.41627340453859       -2.18810178614807
H            5.75624555565486       -4.74289050138544       -2.95568555349378
H            6.87947494175382       -6.54364937171288       -1.68868720155390
H            8.15888643203478       -5.98511072047207        0.34848912822799
H            8.28823154764924       -3.65783123002409        1.12998881602177
H            7.33352785008269        0.11286381908704        2.03306652473883
H            9.40646059483758        1.02847634020733        2.98264018925322
H           11.59773535472676        0.36759101479635        2.05295505910098
H           11.69293826092379       -1.22521550897913        0.16829462119418
H            9.61967507668099       -2.12448815582100       -0.79869284275222
H            4.65215286609284       -2.31625039449148        0.19197613194317
H           -0.87550288087592        3.97888440051683        1.32755846483662
H           -1.43685656021158        6.32559978181439        1.70174449630976
H           -3.77598155081448        7.08928212711416        1.40429602712990
H           -5.52467672188997        5.48362575695743        0.85265384089587
H           -6.54820950080215        3.25981997160359       -1.72686354757325
H           -8.88591045197719        4.03184128996714       -1.96674478907033
H          -10.20775165944869        4.59110458096436        0.03817532606878
H           -9.19381397411960        4.39250013077919        2.27707261141849
H           -6.85844692081322        3.61402323679049        2.51058251610075
H           -7.18850835578404        1.11481326136939        0.48382854583367
H           -5.88963663587959       -2.30571986296597        2.22665851597663
H           -5.76160675913729       -4.61887709558297        3.03583519777802
H           -6.92687699461772       -6.42986874483403        1.82236205780773
H           -8.23395979806951       -5.89484636121209       -0.20350896411947
H           -8.35033351874862       -3.58108862757862       -1.02653158632454
H           -9.62890638006331       -2.00172958411785        0.90240466381750
H          -11.71214966805362       -1.09529909197750       -0.03568467395664
H          -11.63936133591281        0.46781527372640       -1.94609607327939
H           -9.46098157146708        1.09151963244168       -2.93014031471209
H           -7.37839324546495        0.16844659818159       -2.00908214194095
H           -4.68552081208970       -2.26194481231625       -0.18136088453309
H           -2.87104628807321       -4.85888557711686        2.49704274390093
H           -2.09983867177588       -6.24628860514825        0.58433493204713
H           -1.48748523562952       -5.14362122291921       -1.55758521608370
