  140
       -231.52391336
 F          3.1560613652       -2.4015574697       -2.2238472439
 C          2.6871350802       -3.0653033360       -1.1493607998
 C          2.5984482989       -4.4389162176       -1.1944799782
 C          2.1087304824       -5.1270306508       -0.0915963814
 C          1.7286969292       -4.4310729282        1.0488716756
 C          1.8403060501       -3.0582142686        1.0719086945
 F          1.4807389586       -2.3896102305        2.1857874936
 C          2.3078314527       -2.3224921842       -0.0245985455
 N          2.3860658146       -0.9098023686       -0.0207739040
 C          1.2149557267       -0.1782840424       -0.0430807499
 C         -0.0002186776       -0.8514578527        0.0129110182
 C         -1.2158604954       -0.1788906558        0.0627647378
 C         -1.2296711870        1.2404432166        0.1829779807
 C         -0.0008495589        1.8796725310        0.0071883314
 C          1.2280907699        1.2406421626       -0.1678548056
 B          2.5737670202        1.9290986127       -0.4595802301
 C          2.8903767697        3.3793174295       -0.8753931180
 C          1.9439315235        4.3247028961       -1.2958506634
 C          2.2724545887        5.6337547324       -1.5736185506
 C          3.5880838100        6.0562648785       -1.4309886157
 C          4.5640764991        5.1501756435       -1.0733159817
 C          4.2422555979        3.8086937895       -0.8338372855
 N          5.2666621707        2.9198435218       -0.5522710928
 C          6.6029453027        3.4073160367       -0.4660184741
 C          7.1863624933        3.5766190358        0.7835253950
 C          8.4972708540        4.0065969361        0.8789955090
 C          9.2271393154        4.2712685567       -0.2678124872
 C          8.6437039717        4.1073772382       -1.5134318046
 C          7.3343981500        3.6731638489       -1.6170689309
 C          5.0921894353        1.5656708670       -0.3590439333
 C          6.2072520230        0.7369418679       -0.2497142021
 C          6.0461518245       -0.6165126146        0.0400451059
 N          7.1665647277       -1.4342307343        0.2115167413
 C          7.1231088263       -2.7701349593       -0.1998501320
 C          6.4194095946       -3.1375142717       -1.3479234931
 C          6.3557393800       -4.4624440328       -1.7299247943
 C          6.9972790591       -5.4405316968       -0.9870562225
 C          7.7086789596       -5.0795394693        0.1455696471
 C          7.7712596598       -3.7579908938        0.5420501887
 C          8.3336348035       -0.9038773038        0.7697664296
 C          8.2626034681        0.0283356673        1.8062496023
 C          9.4160359167        0.5737062815        2.3329515818
 C         10.6573158008        0.1952765385        1.8475590879
 C         10.7346750519       -0.7395984134        0.8278727126
 C          9.5863932213       -1.2846646255        0.2880835563
 C          4.7664340788       -1.1506705335        0.1643839815
 C          3.6509715073       -0.3464811741       -0.0574708951
 C          3.7861522798        1.0372292412       -0.2924166183
 B         -2.5757870209        1.9294752412        0.4708732434
 C         -2.8932664629        3.3802093493        0.8838146184
 C         -1.9480978973        4.3257945290        1.3066119881
 C         -2.2774525782        5.6351932898        1.5819427168
 C         -3.5925445767        6.0577511139        1.4346818982
 C         -4.5674973175        5.1513879361        1.0747637401
 C         -4.2449167980        3.8097599470        0.8371278241
 N         -5.2685781266        2.9210523607        0.5525201362
 C         -6.6046904035        3.4089266840        0.4639835341
 C         -7.1828034419        3.5884748527       -0.7865567006
 C         -8.4937165745        4.0182190157       -0.8837904028
 C         -9.2287748745        4.2725111623        0.2621052845
 C         -8.6504352285        4.0986711105        1.5087592496
 C         -7.3410997549        3.6646769141        1.6141191390
 C         -5.0940599449        1.5670352569        0.3584986421
 C         -6.2088600536        0.7390489017        0.2406632342
 C         -6.0463821631       -0.6137652860       -0.0517424065
 N         -7.1648483036       -1.4322239361       -0.2327201763
 C         -7.1175395058       -2.7696421474        0.1749866536
 C         -6.4274247379       -3.1344880078        1.3319428619
 C         -6.3577812155       -4.4599187682        1.7110944627
 C         -6.9799821913       -5.4410817987        0.9559492129
 C         -7.6781842612       -5.0827133682       -0.1856234413
 C         -7.7466081978       -3.7604529721       -0.5790644136
 C         -8.3307282038       -0.9061551622       -0.7962338057
 C         -9.5844226612       -1.3067211463       -0.3331017106
 C        -10.7330239199       -0.7683196463       -0.8788387510
 C        -10.6554617861        0.1806434716       -1.8853107286
 C         -9.4133027750        0.5794908853       -2.3518999868
 C         -8.2595315368        0.0399783503       -1.8203056947
 C         -4.7659956288       -1.1482837338       -0.1678085405
 C         -3.6517947735       -0.3454671798        0.0645827256
 C         -3.7878092216        1.0380921301        0.2991796252
 N         -2.3871062758       -0.9103429799        0.0384311779
 C         -2.3107360361       -2.3228257033        0.0515193474
 C         -2.7060321670       -3.0580880400        1.1759325306
 F         -3.1877905808       -2.3868117659        2.2400740834
 C         -2.6197497700       -4.4314192077        1.2312317302
 C         -2.1157304909       -5.1274971010        0.1398679242
 C         -1.7195117183       -4.4394623228       -0.9998516172
 C         -1.8297304378       -3.0667160535       -1.0336553591
 F         -1.4551461866       -2.4064146800       -2.1476651472
 H          2.9020651676       -4.9570456421       -2.0891966316
 H          2.0270770233       -6.2007067217       -0.1186472242
 H          1.3526457878       -4.9422551635        1.9201009524
 H          0.0005118109       -1.9284784744        0.0167650440
 H         -0.0015395399        2.9551885056        0.0059416709
 H          0.9211166461        4.0079378802       -1.4222189529
 H          1.5106782417        6.3319451940       -1.8887890671
 H          3.8555942292        7.0867719913       -1.6128059616
 H          5.5862468765        5.4864956757       -0.9849173781
 H          6.6072802456        3.3632957041        1.6696256627
 H          8.9503335336        4.1347503947        1.8503551378
 H         10.2510326170        4.6044296795       -0.1912484482
 H          9.2119109649        4.3130668675       -2.4082211224
 H          6.8709893236        3.5355758622       -2.5828097045
 H          7.2049871608        1.1260636417       -0.3745158025
 H          5.9271747804       -2.3782370521       -1.9368359589
 H          5.8106807882       -4.7303550034       -2.6229080326
 H          6.9473910549       -6.4752824666       -1.2906786137
 H          8.2127231085       -5.8345166712        0.7311722252
 H          8.3164328110       -3.4806572872        1.4325005245
 H          7.2969073048        0.3167869400        2.1939512855
 H          9.3453277418        1.2927483992        3.1358372796
 H         11.5572118238        0.6226412852        2.2627037373
 H         11.6977111652       -1.0408833004        0.4429890272
 H          9.6486402835       -2.0035500254       -0.5158537146
 H          4.6592143924       -2.1910010666        0.4321271521
 H         -0.9257709675        4.0089235115        1.4368371110
 H         -1.5166209747        6.3335668372        1.8989648717
 H         -3.8604710152        7.0884650262        1.6146172702
 H         -5.5895300532        5.4872893595        0.9831483132
 H         -6.6000065081        3.3834752038       -1.6722039208
 H         -8.9427682112        4.1546373753       -1.8559500314
 H        -10.2526275476        4.6054904282        0.1837246010
 H         -9.2221890949        4.2963346276        2.4031197571
 H         -6.8814542617        3.5198311293        2.5805352844
 H         -7.2073023414        1.1281026542        0.3598574150
 H         -5.9496155216       -2.3726096023        1.9293464214
 H         -5.8223760098       -4.7260146183        2.6103430132
 H         -6.9241661878       -6.4764897115        1.2560205955
 H         -8.1658690007       -5.8403621241       -0.7813487413
 H         -8.2807668710       -3.4852243553       -1.4767636387
 H         -9.6480020852       -2.0357750427        0.4614539232
 H        -11.6967809011       -1.0851326742       -0.5079321762
 H        -11.5557728001        0.6035630670       -2.3043884612
 H         -9.3424539586        1.3097508864       -3.1445805442
 H         -7.2932048830        0.3430295185       -2.1951168572
 H         -4.6566552643       -2.1879609477       -0.4372799830
 H         -2.9357745866       -4.9433924841        2.1251436110
 H         -2.0353709225       -6.2009975704        0.1754409150
 H         -1.3317699667       -4.9567941944       -1.8622336892
