  140
       -231.60562475
 F          3.1157253369       -2.2077752387       -2.4473327382
 C          2.6765507132       -2.9584052576       -1.4242196837
 C          2.6040471465       -4.3290109746       -1.5826486036
 C          2.1445857001       -5.1074805244       -0.5348159272
 C          1.7766212800       -4.5181597683        0.6618384387
 C          1.8754094514       -3.1459802450        0.7986882278
 F          1.5298971445       -2.5868118064        1.9722607636
 C          2.3124969740       -2.3200413378       -0.2376001323
 N          2.3877419413       -0.9141531356       -0.1209821001
 C          1.2116804009       -0.1751152862       -0.0877541087
 C         -0.0006999483       -0.8475850406       -0.0057985553
 C         -1.2125697054       -0.1741800927        0.0786796389
 C         -1.2273996861        1.2379078730        0.1676213372
 C          0.0006791014        1.8734366001        0.0010711322
 C          1.2279722787        1.2374429155       -0.1692322472
 B          2.5787203774        1.9404224895       -0.4162336717
 C          2.9041772447        3.4105378796       -0.7612902985
 C          1.9649949482        4.3695079545       -1.1626646035
 C          2.2923415275        5.6902404328       -1.3710356725
 C          3.6024310062        6.1059030297       -1.1704333306
 C          4.5699020489        5.1903922457       -0.8270241324
 C          4.2492635669        3.8362065622       -0.6579001807
 N          5.2699118916        2.9408006471       -0.3881592646
 C          6.5992260230        3.4257475882       -0.2149779681
 C          7.1258940977        3.5232980115        1.0665863478
 C          8.4316341687        3.9430364020        1.2453456895
 C          9.2125024019        4.2700795586        0.1496570683
 C          8.6854871192        4.1793809747       -1.1280814906
 C          7.3821430437        3.7547310787       -1.3145675255
 C          5.0957281971        1.5778451341       -0.2828872701
 C          6.2088117251        0.7432986436       -0.2034836820
 C          6.0418112394       -0.6208820698       -0.0100900383
 N          7.1596124914       -1.4514140389        0.1164264309
 C          7.1162731420       -2.7588744957       -0.3776243050
 C          6.4290551300       -3.0509352348       -1.5567054027
 C          6.3679446466       -4.3488885646       -2.0231259373
 C          6.9968400764       -5.3741817753       -1.3355545599
 C          7.6924970230       -5.0878319943       -0.1725179761
 C          7.7511842141       -3.7941973068        0.3083252980
 C          8.3235996907       -0.9638224723        0.7203452153
 C          8.2455581388       -0.1066576982        1.8184494498
 C          9.3954302216        0.3970400213        2.3924079652
 C         10.6399655630        0.0473702863        1.8944045027
 C         10.7242179513       -0.8155798262        0.8143682230
 C          9.5789468996       -1.3165201826        0.2264457735
 C          4.7636717137       -1.1662737845        0.0631986553
 C          3.6536905175       -0.3512897500       -0.1192095558
 C          3.7925598406        1.0416751526       -0.2711872927
 B         -2.5776262171        1.9412834908        0.4163321196
 C         -2.9016813038        3.4115938911        0.7621438594
 C         -1.9623378367        4.3698249487        1.1652402581
 C         -2.2886107649        5.6912158647        1.3707644688
 C         -3.5975341533        6.1086240309        1.1652454026
 C         -4.5654602925        5.1938644957        0.8213536821
 C         -4.2459323681        3.8389290416        0.6554891418
 N         -5.2673665845        2.9443687058        0.3872405945
 C         -6.5955737009        3.4306821551        0.2086351330
 C         -7.1128321652        3.5369005386       -1.0760704733
 C         -8.4175897974        3.9567174318       -1.2614864295
 C         -9.2069863236        4.2742453585       -0.1690955990
 C         -8.6892185353        4.1750695908        1.1117965918
 C         -7.3864788226        3.7512988728        1.3048585312
 C         -5.0949471971        1.5811351646        0.2836688105
 C         -6.2095494559        0.7480142314        0.2088990995
 C         -6.0443242763       -0.6165112590        0.0177595113
 N         -7.1612589939       -1.4501941662       -0.0943747069
 C         -7.1080669083       -2.7533270716        0.4112054222
 C         -6.4115797175       -3.0310232247        1.5882390133
 C         -6.3394863523       -4.3244250251        2.0655439414
 C         -6.9664387012       -5.3594160395        1.3907710438
 C         -7.6714755485       -5.0872757004        0.2299767402
 C         -7.7413783099       -3.7981352585       -0.2615548283
 C         -8.3362288151       -0.9694673474       -0.6814597313
 C         -9.5823454863       -1.3308089278       -0.1705266816
 C        -10.7390702396       -0.8385382461       -0.7431152563
 C        -10.6756817885        0.0248302296       -1.8241887184
 C         -9.4404468466        0.3839376600       -2.3384751431
 C         -8.2792405230       -0.1114404782       -1.7803053152
 C         -4.7667314531       -1.1622197895       -0.0649427235
 C         -3.6548996045       -0.3489775853        0.1131924159
 C         -3.7922408372        1.0438399253        0.2691814904
 N         -2.3892138398       -0.9123954179        0.1072994100
 C         -2.3138757072       -2.3201167618        0.1995391561
 C         -2.6759235202       -2.9810410486        1.3742461628
 F         -3.1113863089       -2.2502759821        2.4130754647
 C         -2.6050952146       -4.3547674944        1.5050136416
 C         -2.1484472884       -5.1128537332        0.4412010916
 C         -1.7810330868       -4.5004583936       -0.7440613448
 C         -1.8788302575       -3.1258422988       -0.8534894054
 F         -1.5339832379       -2.5432582501       -2.0157570425
 H          2.8980828553       -4.7653884979       -2.5230777746
 H          2.0765704181       -6.1772476051       -0.6491143794
 H          1.4219881287       -5.1034610017        1.4948073344
 H         -0.0013554857       -1.9249338261       -0.0074882051
 H          0.0014602495        2.9488587673        0.0052615462
 H          0.9476267439        4.0557158244       -1.3344123220
 H          1.5375535484        6.3994861796       -1.6773567757
 H          3.8714158423        7.1444742094       -1.2992518917
 H          5.5881782084        5.5244889103       -0.6944927052
 H          6.5083020040        3.2606172065        1.9126393016
 H          8.8407071860        4.0144542126        2.2418778066
 H         10.2324258144        4.5946415536        0.2907817113
 H          9.2933149632        4.4339667656       -1.9835841840
 H          6.9632395061        3.6719664808       -2.3066539773
 H          7.2077058728        1.1403132581       -0.2874278330
 H          5.9460801638       -2.2541605184       -2.1023688788
 H          5.8348459654       -4.5583737677       -2.9390241716
 H          6.9491579184       -6.3873488600       -1.7053373805
 H          8.1863598282       -5.8799100638        0.3712019892
 H          8.2848885620       -3.5757996499        1.2218710564
 H          7.2768201016        0.1593333674        2.2143502908
 H          9.3194697961        1.0608247503        3.2410555632
 H         11.5373329184        0.4427760732        2.3456643062
 H         11.6900276435       -1.0937472692        0.4185835559
 H          9.6474632771       -1.9783169984       -0.6246340172
 H          4.6580214930       -2.2223247728        0.2608659305
 H         -0.9460739713        4.0545947329        1.3409708650
 H         -1.5340008659        6.3999712380        1.6787914241
 H         -3.8649232072        7.1480463548        1.2905540835
 H         -5.5833180290        5.5283405146        0.6862425740
 H         -6.4881984303        3.2813462288       -1.9191679918
 H         -8.8193023779        4.0354092853       -2.2605176157
 H        -10.2262919886        4.5984800045       -0.3152837646
 H         -9.3039058684        4.4223171924        1.9645239054
 H         -6.9747394179        3.6621523391        2.2994377372
 H         -7.2075313462        1.1464581515        0.2967882005
 H         -5.9299415189       -2.2267174228        2.1238893332
 H         -5.7997518023       -4.5222312022        2.9801187290
 H         -6.9102745843       -6.3691295548        1.7687646699
 H         -8.1644857182       -5.8869895723       -0.3033027630
 H         -8.2826175770       -3.5906544899       -1.1731932074
 H         -9.6348524390       -1.9932565656        0.6812126476
 H        -11.6973733725       -1.1238561101       -0.3342224118
 H        -11.5818596680        0.4129344112       -2.2640119701
 H         -9.3808632224        1.0482195838       -3.1880743824
 H         -7.3179106967        0.1617758982       -2.1892533636
 H         -4.6640169138       -2.2182790242       -0.2638964508
 H         -2.8984463424       -4.8096400904        2.4368463694
 H         -2.0822553028       -6.1848254652        0.5340406807
 H         -1.4283267810       -5.0695614630       -1.5889665362
