140
 energy: -231.525160838482 gnorm: 0.000074934092 xtb: 6.7.1 (edcfbbe)
F            3.13456677250424       -2.32892653647366       -2.30454035115616
C            2.67266466644775       -3.02344196583811       -1.24693660812753
C            2.58164883530259       -4.39506140675276       -1.33161903981200
C            2.09856793666927       -5.11438180726758       -0.24595312243383
C            1.72779473603795       -4.45179912655533        0.91710243861065
C            1.84242947171325       -3.08031842366803        0.97971186687198
F            1.49234128271349       -2.44460653449260        2.11576498126855
C            2.30290369070148       -2.31355825523276       -0.09805181732420
N            2.38427405417075       -0.90136671467846       -0.05572750265236
C            1.21544959639864       -0.16599872024233       -0.06027264450331
C           -0.00031594051251       -0.83711083935315        0.00119590972975
C           -1.21556459317341       -0.16497620344353        0.06117014516125
C           -1.23031677615619        1.25537279351042        0.16816979637942
C            0.00065117006206        1.89251828635675       -0.00229444001521
C            1.23119146117709        1.25406263215418       -0.17095763441016
B            2.58068411100211        1.94581509898349       -0.43890099408899
C            2.90557881916853        3.40528760269667       -0.81589640606160
C            1.96722211447783        4.36487690171164       -1.22230347016909
C            2.30194250109845        5.68059191873329       -1.45814635989904
C            3.61631965111720        6.09598949899291       -1.28655177294625
C            4.58566463850496        5.17727652063372       -0.94331733168186
C            4.25782567524546        3.83045212848609       -0.74622541789916
N            5.27736297659863        2.93155503384892       -0.47924782313259
C            6.61361077009401        3.41206653315053       -0.35935991545240
C            7.17972288638294        3.53811616050107        0.90315690142290
C            8.49127041951959        3.95766239966523        1.03109306705073
C            9.23916793380796        4.25456371754081       -0.09598272707304
C            8.67277493400947        4.13444784691946       -1.35437018976296
C            7.36277087173571        3.71135411902616       -1.49062978060998
C            5.09791249629727        1.57285275233849       -0.32831543951859
C            6.21077842769281        0.73787860301881       -0.24187165873987
C            6.04533539381629       -0.62315111471195        0.00558926346195
N            7.16119158192695       -1.45296845930672        0.14605337730505
C            7.10484397592757       -2.77318836234586       -0.31325391062481
C            6.39869620121920       -3.09139989343171       -1.47424770712440
C            6.32143621628885       -4.40091798171235       -1.90412124307969
C            6.95183070233644       -5.41181868830335       -1.19665908476872
C            7.66572468504306       -5.09954098327235       -0.05118208633844
C            7.74167520216184       -3.79392271568805        0.39294758264556
C            8.33528231395629       -0.95128682662991        0.71521867450808
C            8.27748630540431       -0.04669585041088        1.77683391746319
C            9.43812895479605        0.47085085543050        2.31520888253179
C           10.67399655234935        0.09056150046261        1.81753010342927
C           10.73828982097913       -0.81769755298706        0.77336640970171
C            9.58254271459856       -1.33382866641130        0.22104786896701
C            4.76361649730169       -1.15519087599346        0.11711006367605
C            3.65065211730253       -0.34117953449532       -0.08179852038375
C            3.79003523389040        1.04721798367741       -0.28173454925353
B           -2.57927699499467        1.94875944391798        0.43462376689857
C           -2.90307962630679        3.40946868948526        0.80776458729511
C           -1.96393926697199        4.36959220261729        1.21111179879143
C           -2.29771097499082        5.68618634161268        1.44335892678151
C           -3.61186038767037        6.10198261063546        1.27102215174805
C           -4.58194867527712        5.18292374891350        0.93079050805461
C           -4.25506350767147        3.83533201729412        0.73749285712472
N           -5.27532516729654        2.93632163728426        0.47362620562389
C           -6.61136897362556        3.41725935309585        0.35340406639794
C           -7.17858091614757        3.53955233066633       -0.90898892205651
C           -8.49001274941044        3.95941127112082       -1.03706176895447
C           -9.23669693393104        4.26037420374945        0.08974306090253
C           -8.66919443108060        4.14402730006669        1.34798503991710
C           -7.35930419581403        3.72063518170581        1.48439592763837
C           -5.09679090111537        1.57708750273645        0.32639218352314
C           -6.21022435033848        0.74258161357630        0.24312335239812
C           -6.04581900083324       -0.61924041094773       -0.00065210789658
N           -7.16233587535719       -1.44870352091203       -0.13786748613715
C           -7.10664660901250       -2.76763403827893        0.32518142094056
C           -6.39946882730744       -3.08317081434410        1.48627489182621
C           -6.32293389780162       -4.39152386452857        1.91981354234814
C           -6.95510203040779       -5.40385697006681        1.21599566473976
C           -7.67003984089495       -5.09419566065018        0.07046071953887
C           -7.74526311948449       -3.78979058758213       -0.37734181548267
C           -8.33660919054988       -0.94765465906942       -0.70725213237718
C           -9.58367247225558       -1.32746523909368       -0.21050492777051
C          -10.73953451546966       -0.81184685891827       -0.76306765809411
C          -10.67552166397444        0.09317376610743       -1.81005532120770
C           -9.43984814417168        0.47070529811664       -2.31030746292900
C           -8.27910925232800       -0.04635878205420       -1.77167397511498
C           -4.76450911663306       -1.15237619083329       -0.11170141965908
C           -3.65091443679412       -0.33851176478298        0.08419241084825
C           -3.78927035984518        1.05052239605177        0.28043098035202
N           -2.38490743878787       -0.89957377633111        0.05884740973642
C           -2.30437982596670       -2.31171710726982        0.10457704329975
C           -2.67365919571636       -3.01856459758687        1.25546613630400
F           -3.13439640461932       -2.32121244316964        2.31171312970922
C           -2.58331071047190       -4.39003914041904        1.34342218618209
C           -2.10144655117446       -5.11224269956242        0.25914521350562
C           -1.73120467401364       -4.45272168934353       -0.90580646966286
C           -1.84513243690712       -3.08131885024361       -0.97166313503475
F           -1.49550020005254       -2.44853168381048       -2.10949076298018
H            2.87804817583200       -4.88715847773780       -2.24326427183804
H            2.01485969168166       -6.18668316501989       -0.30401090832329
H            1.35641919082803       -4.98774177743938        1.77531202428757
H           -0.00069017421651       -1.91383525862223        0.00248451403682
H            0.00103443753295        2.96763207397948       -0.00372767913121
H            0.94545966340815        4.05524427530393       -1.37225054367078
H            1.54540077225196        6.38903437873276       -1.76289349607725
H            3.88824976546659        7.13067609599082       -1.43494725665253
H            5.60759374065462        5.50786613866049       -0.83300929520795
H            6.58711658263404        3.29964280394462        1.77378647902095
H            8.93070142791746        4.05234561836525        2.01251552603222
H           10.26376548990668        4.57870248301815        0.00581320621720
H            9.25469385390370        4.36506451980404       -2.23417387632238
H            6.91296415058856        3.60670775923485       -2.46688757160844
H            7.20974330910475        1.12762526967889       -0.35423873121373
H            5.91426583581254       -2.30636420630820       -2.03528529761647
H            5.77354157537512       -4.63056762722823       -2.80600383742827
H            6.89050704873788       -6.43445050416753       -1.53685941392528
H            8.16024645439788       -5.88068086439168        0.50747331009275
H            8.28852995658077       -3.55452757435838        1.29330688021954
H            7.31595631619821        0.24209918655519        2.17456211050709
H            9.37773626595335        1.16924257077571        3.13693114149042
H           11.57979049225791        0.49655698031799        2.24151830001435
H           11.69707994403081       -1.11966050419006        0.37798313853083
H            9.63561591346521       -2.03104327981584       -0.60233368238149
H            4.65276889378420       -2.20228551251852        0.35533848839503
H           -0.94231923575125        4.05972742264707        1.36152851321742
H           -1.54059049875914        6.39498502849589        1.74582552780076
H           -3.88304424307275        7.13727319983551        1.41652689332047
H           -5.60369078177852        5.51388820923633        0.81988317430842
H           -6.58692705636875        3.29791156333885       -1.77939262169868
H           -8.93031027394519        4.05114914839952       -2.01837360735853
H          -10.26121360472679        4.58473509964397       -0.01214852818795
H           -9.25016115475143        4.37781972499729        2.22757854496360
H           -6.90864541169632        3.61890257289127        2.46056863006241
H           -7.20886028646619        1.13324013797287        0.35519652198934
H           -5.91368490955056       -2.29699076207425        2.04452989152988
H           -5.77421440945729       -4.61909002000820        2.82172244954958
H           -6.89435355610285       -6.42556305421702        1.55906824562095
H           -8.16596227589399       -5.87646581192373       -0.48536397845308
H           -8.29294285316818       -3.55247168742920       -1.27774891596018
H           -9.63649319068960       -2.02212443076558        0.61504950287205
H          -11.69817361447073       -1.11162684586820       -0.36566452375490
H          -11.58139293112095        0.49879914578298       -2.23423142727604
H           -9.37970132687814        1.16652460012240       -3.13422596396308
H           -7.31773652959413        0.24027576675056       -2.17134198392286
H           -4.65449665195058       -2.20018996379384       -0.34711043849234
H           -2.87928821725466       -4.87975081025289        2.25649261346039
H           -2.01827969217352       -6.18445836604299        0.31974847221944
H           -1.36077434179573       -4.99095354640831       -1.76299600261923
