120
 energy: -189.886814262679 gnorm: 0.000110676934 xtb: 6.7.1 (edcfbbe)
N           12.75075852447813       -6.46963946193800       -0.44997006581732
C           11.77388250328002       -5.86530428934814       -0.42010895683700
C           10.57568356146700       -5.12426450316262       -0.38288259100568
C            9.46935855550248       -5.61356458321371        0.31765346349962
C            8.29935110374212       -4.88647137640682        0.34626798763440
C            8.19847854864858       -3.65765604887985       -0.31246442326365
C            6.94951817709231       -2.89112766182445       -0.27175543183364
C            5.70708834332331       -3.54660358086151       -0.33415527149293
C            4.54654864844844       -2.82471705902057       -0.28881191489937
C            4.56443900620429       -1.42390428944245       -0.17029475967307
C            5.80470508581996       -0.74379169509655       -0.10606153078472
C            6.97272188431056       -1.51058138722476       -0.16442991690479
C            5.81682278095636        0.69720134938903        0.02047351518610
C            6.99750133164270        1.44411742103275        0.08349393428290
C            6.99720083117357        2.82472961618295        0.19229253502749
C            8.25865199989317        3.57030182966893        0.23855305674114
C            9.36215836742893        3.07269423017255        0.93756865068963
C           10.54813367664097        3.77284711860918        0.98359529500935
C           10.65914989292399        4.99797650235794        0.31978449313407
C           11.86908554613937        5.71947658290790        0.36212575595585
N           12.85516311285411        6.30844783041545        0.39576613185327
C            9.56376206727943        5.50580865312974       -0.38473777698058
C            8.38225159973291        4.79781841383204       -0.41868904280493
C            5.76587434873333        3.50107869791185        0.25122203482155
C            4.59349518510734        2.79888682522248        0.20095217791337
C            4.58819159599866        1.39819883617501        0.08093077909462
C            3.33931727644040        0.70776851496996        0.01895526622917
N            2.19157194995021        1.36892197495274        0.08030139684812
C            1.01775620655649        0.73541206810857        0.02145517245635
C           -0.19800897029636        1.41027248066559        0.07837026354849
C           -1.41383056332954        0.73923122306476        0.01625568374500
C           -2.66313798472854        1.51075811690539        0.01431729857793
C           -3.66185521806567        1.25168458835572       -0.92602443881550
C           -4.84268307417234        1.95975620458506       -0.91951050888555
C           -5.06972059664282        2.95077171083341        0.03875234298042
N           -6.28602694425994        3.63651213252652        0.07238297121814
C           -6.31554526742734        4.99572634841897        0.40487686141478
C           -7.35080502845832        5.51209251519471        1.18529415164707
C           -7.37299200852125        6.85492972405797        1.50892724469182
C           -6.36708172548631        7.70047185721863        1.06788198080102
C           -5.33526852651432        7.19182830520853        0.29469098466919
C           -5.30667109929924        5.85172972885736       -0.03928006737034
C           -7.47480328565467        2.95561379085397       -0.21352550330821
C           -8.50893473384662        3.59130871859222       -0.90217147894013
C           -9.67904951611219        2.91122506000153       -1.18040653493137
C           -9.83612195507211        1.59173037774990       -0.78618364331780
C           -8.81130479869480        0.95526241688146       -0.10345846693227
C           -7.64077462484995        1.62838023775961        0.18651329799598
C           -4.06147704907424        3.23614997600908        0.96179924240060
C           -2.87605859933475        2.53218551563071        0.93985030299622
C           -1.42503515784007       -0.66480443716212       -0.08730849540829
C           -2.68510462939129       -1.42249107923867       -0.06132109322078
C           -2.95211831860606       -2.39995249268076       -1.01903604091309
C           -4.13935139050887       -3.10130484767864       -1.00436851836994
C           -5.09051454158638       -2.85924413116748       -0.01155725204702
N           -6.29961467748153       -3.56203391862043       -0.00339845569513
C           -6.94680027288171       -3.82986788987983       -1.21594494958222
C           -7.59036943284864       -5.05025107739147       -1.42419878983119
C           -8.22872080386200       -5.30244526490212       -2.62325698511969
C           -8.23134794578944       -4.35073309683014       -3.63104278193219
C           -7.59037969510831       -3.13831110258730       -3.42990890239157
C           -6.95361810744750       -2.87401818941370       -2.23287268688880
C           -6.85519966457673       -3.99297764508286        1.20451047754682
C           -8.23994990675940       -4.01344835320798        1.38128698989525
C           -8.78258701241648       -4.44125093247928        2.57737521328820
C           -7.96030605057221       -4.84921127878969        3.61595264981994
C           -6.58474087932141       -4.82997032291544        3.44646533253497
C           -6.03199658939159       -4.40982813188120        2.25233608969891
C           -4.81307993838308       -1.90559306895731        0.96975136965244
C           -3.63133996143134       -1.19759113336218        0.93920562550818
C           -0.22203217481581       -1.35563815926170       -0.16372548767510
C            1.00574740153025       -0.70111681059497       -0.11491645848738
N            2.16835357283214       -1.35394397853644       -0.17654902782226
C            3.32743195543901       -0.71248729317472       -0.11164105621270
C            9.31281030296613       -3.17867505642313       -1.00736550525549
C           10.48742582220496       -3.89800212319695       -1.04805673404382
H            9.54248968340621       -6.55947563475653        0.83459681765527
H            7.45511020436815       -5.26200168207473        0.90465688487469
H            5.67279169777043       -4.61994702337278       -0.44464625155217
H            3.58420695654259       -3.31125374410712       -0.34309864707226
H            7.93266163645204       -1.02528883920121       -0.09352759514444
H            7.94935125708821        0.94274020971608        0.01544311780490
H            9.27869183005377        2.13745973225266        1.47064070236392
H           11.39485300171848        3.38599863610051        1.53216307666115
H            9.65417210930269        6.45089453905533       -0.90045911659417
H            7.54654060720048        5.18746223623142       -0.98016382158409
H            5.74917848323417        4.57470930812016        0.36300699664348
H            3.63933381697217        3.30143115215438        0.25273907351602
H           -0.17490717711771        2.48777228482760        0.14330002975567
H           -3.49644435674621        0.49933821955092       -1.68228350415283
H           -5.60073139827850        1.75647650374248       -1.66143986221037
H           -8.12925921162053        4.85263770521517        1.53998392716352
H           -8.17720583287025        7.24238033554483        2.11704773448371
H           -6.38702209473219        8.74871541823066        1.32502870641141
H           -4.55045948310394        7.84486316089015       -0.05798261962140
H           -4.50803025486367        5.45894140347891       -0.65146341820565
H           -8.38491250368139        4.61564976385023       -1.22170967888124
H          -10.47054660372354        3.41346197083299       -1.71703294979826
H          -10.75061785412758        1.06331008712923       -1.00921459290537
H           -8.92766280985087       -0.07019742684349        0.21471816850584
H           -6.84869391438637        1.13604400263523        0.73057572763798
H           -4.22196630082053        4.00177560824812        1.70659466754185
H           -2.11482130291234        2.74788097988749        1.67547059520311
H           -2.22479709857228       -2.59661787431230       -1.79344210578771
H           -4.33737924462102       -3.84822423347908       -1.75922935720272
H           -7.57869772824828       -5.79765789766414       -0.64443115464121
H           -8.71963614863187       -6.25254098724573       -2.77496471557396
H           -8.72936288954547       -4.55299948309248       -4.56725426625199
H           -7.59326248509062       -2.38909379496189       -4.20795300695069
H           -6.46368559043257       -1.92482559920317       -2.07241228527510
H           -8.88396545131978       -3.68855589064852        0.57737496246773
H           -9.85553036126423       -4.44864838722373        2.70234201592309
H           -8.38803936661358       -5.18076371700279        4.55001500093077
H           -5.93630352628581       -5.15349126936787        4.24756377331058
H           -4.96007456080471       -4.40886106391888        2.11907181380843
H           -5.53687971028132       -1.71925240318899        1.74949254041812
H           -3.43014734677925       -0.46171308635608        1.70340854843499
H           -0.21825891374636       -2.43338463555959       -0.23000361578526
H            9.24652851306730       -2.24265161258433       -1.54145399056480
H           11.34270555914830       -3.52547429516315       -1.59330567146384
