  41
  -69.6758514573000       0.595242229137908      !
 C          5.3322297842       -2.8169075204        0.1162455968
 O          3.9535057606       -2.5226415531        0.0916219782
 C          3.5734181525       -1.2315202645        0.0530888849
 C          4.4092120699       -0.1601248065        0.0296113108
 C          3.9196116603        1.1936600786       -0.0083678759
 O          4.6086406674        2.1851086591       -0.0304179361
 O          2.5552398017        1.3663203883       -0.0239693730
 C          1.7078968162        0.3207918891       -0.0040190954
 C          2.1460669376       -1.0098229669        0.0368066636
 C          1.2145018933       -2.0634142328        0.0728890396
 C         -0.1376656027       -1.8326377211        0.0544258573
 C         -0.5765934203       -0.5091383955       -0.0077221948
 C          0.3338595065        0.5704433198       -0.0209079230
 C         -0.4468426318        1.7728933017       -0.0396748616
 C         -0.1210713809        3.1232855246       -0.0720566649
 C         -1.1503479398        4.0419834659       -0.1047407239
 C         -2.4825875160        3.6315165789       -0.1190827863
 C         -2.8281728618        2.2940411990       -0.0863807968
 C         -1.7995567170        1.3648330400       -0.0312822323
 N         -1.8577761094       -0.0172370646       -0.0126302785
 C         -3.0327198872       -0.7874146860       -0.0005932496
 C         -4.0207069397       -0.5360567737        0.9459648922
 C         -5.1766914875       -1.2947485280        0.9528909429
 C         -5.3516415110       -2.3096803596        0.0268493906
 C         -4.3670195049       -2.5620397757       -0.9138222673
 C         -3.2114268404       -1.8027999510       -0.9345927369
 H          5.4010442442       -3.9024028311        0.1561849366
 H          5.8140512487       -2.3867666708        0.9986381387
 H          5.8319034230       -2.4510996038       -0.7851100099
 H          5.4821108835       -0.2509600360        0.0385084973
 H          1.5968927328       -3.0701876433        0.1193171906
 H         -0.8409491603       -2.6492631790        0.0989009498
 H          0.9123673183        3.4305779208       -0.0757819906
 H         -0.9250768937        5.0974516394       -0.1288830094
 H         -3.2637478829        4.3761875203       -0.1599523113
 H         -3.8621800004        1.9849556037       -0.1134707566
 H         -3.8706043306        0.2437776791        1.6774600338
 H         -5.9416723952       -1.0959204465        1.6887178804
 H         -6.2541223930       -2.9018457238        0.0372303868
 H         -4.5019178569       -3.3493398152       -1.6401597033
 H         -2.4492709527       -1.9822256872       -1.6780440776
  41
  -69.6754869879000       0.404757770862092      !
 C          5.3113504356       -2.7904728070        0.5205960215
 O          3.9459357557       -2.5089374100        0.3100123465
 C          3.5705099731       -1.2240061951        0.1647108575
 C          4.4053865886       -0.1518305592        0.1447193491
 C          3.9189529418        1.1955739517       -0.0033659853
 O          4.6082894259        2.1859149801       -0.0498336909
 O          2.5566879894        1.3637611093       -0.0917286805
 C          1.7094666370        0.3184438972       -0.0590912021
 C          2.1475925543       -1.0090121434        0.0405470098
 C          1.2187286122       -2.0656141221        0.0341571485
 C         -0.1326815837       -1.8379283911       -0.0250186761
 C         -0.5740447011       -0.5141500273       -0.0653670958
 C          0.3357913177        0.5647629641       -0.1141564376
 C         -0.4456261190        1.7646652641       -0.1874612222
 C         -0.1192454612        3.1142776731       -0.2390191484
 C         -1.1480172269        4.0338626855       -0.2599432850
 C         -2.4800420401        3.6252830768       -0.2158413614
 C         -2.8260218294        2.2881638095       -0.1697883635
 C         -1.7983064261        1.3562910549       -0.1740956970
 N         -1.8559360146       -0.0249459278       -0.1064729105
 C         -3.0294452967       -0.7922340785       -0.0253605139
 C         -3.1684319891       -1.7464164688        0.9781746888
 C         -4.3242215500       -2.5007374985        1.0573217504
 C         -5.3514105120       -2.3015885677        0.1497945001
 C         -5.2167385832       -1.3472869371       -0.8447376732
 C         -4.0589979037       -0.5967650697       -0.9402624739
 H          5.6837877078       -2.2882764585        1.4180755647
 H          5.9175959369       -2.4936522376       -0.3397453047
 H          5.3725406161       -3.8690488369        0.6543637349
 H          5.4748843757       -0.2378442695        0.2351169525
 H          1.6025326475       -3.0717832965        0.0810392510
 H         -0.8331887140       -2.6578847071       -0.0430234327
 H          0.9144131387        3.4206601761       -0.2539474602
 H         -0.9224725257        5.0888089238       -0.2998278163
 H         -3.2612184883        4.3710394860       -0.2140851610
 H         -3.8603290669        1.9834036589       -0.1192096130
 H         -2.3759914449       -1.8794918075        1.6993105513
 H         -4.4265569998       -3.2404600423        1.8372849986
 H         -6.2545003311       -2.8888058866        0.2180555014
 H         -6.0138319702       -1.1918752655       -1.5564168399
 H         -3.9402958471        0.1307370523       -1.7290052093
