70
 energy: -100.810459842638 gnorm: 0.000080500740 xtb: 6.7.1 (edcfbbe)
C           -4.79100482450901       -0.95650245754761       -0.77694333431673
C           -5.84255222890004       -0.23291061839497       -0.34633769744440
C           -5.69969545575055        0.99207699679310        0.46128761048335
C           -6.39970877992403        2.14535803124535        0.11571114336984
C           -6.28017019236150        3.29281882743784        0.87790131182537
C           -5.47337716085347        3.29946223882720        2.00341724335818
C           -4.78800363135697        2.15086974120394        2.36519567202757
C           -4.89947835417104        1.00469438270230        1.60161522708701
C           -7.21916081715150       -0.67375314685890       -0.60608505838796
C           -7.56425911421352       -1.29914954992678       -1.80393698307390
C           -8.86278226814691       -1.71187772632238       -2.03462558553451
C           -9.84028196772484       -1.51086749118382       -1.07410551739340
C           -9.51068116668008       -0.88797028071127        0.11853011619512
C           -8.21481179449377       -0.46868169578295        0.34965867097934
C           -3.38659465209431       -0.61444630792592       -0.65523184478493
C           -2.91779147122035        0.70203573024497       -0.71719811557055
C           -1.57871003575703        0.98317465324597       -0.57894700503002
C           -0.63667331355263       -0.03505752845827       -0.38120017404940
C            0.77250348222876        0.26269790954542       -0.19481746027714
C            1.18654636409771        1.44966701844058        0.44172761800253
C            2.50611830651349        1.71507239984492        0.66202058648234
C            3.52652619535436        0.80216174787146        0.26357539213073
C            4.85330000367016        1.05814302036839        0.56670096872280
C            5.97353498483895        0.15995653190107        0.30868608346271
C            7.12986161599787        0.70846941131240       -0.33377776517375
C            7.00746141198185        1.84398803797586       -1.15898923756578
C            8.10974594104663        2.40692674574836       -1.76103687063878
C            9.37483797547034        1.87427884935144       -1.54996328992621
C            9.52120262884734        0.77274412141435       -0.71777184199517
C            8.42369032149927        0.19518172658752       -0.11877912083941
C            5.89103974858596       -1.20350343981753        0.73597979317826
C            5.03157315196278       -1.57577628069495        1.79013306717209
C            4.91709202928177       -2.88966504028338        2.18267033062465
C            5.63830411235333       -3.88400109678497        1.53493369888622
C            6.47339750708243       -3.54276134749525        0.47917770795025
C            6.60396953283776       -2.23015477306740        0.08439329114662
C            3.09910122915048       -0.36765223654827       -0.43109342053455
C            1.77413355565468       -0.62402135817809       -0.63399964649011
C           -1.10363110430426       -1.35529211640590       -0.36369989712175
C           -2.44295179491748       -1.63602210354523       -0.50480479846289
H           -4.98723185165737       -1.91572950292752       -1.24132212682493
H           -7.02949153341891        2.13934452973991       -0.76292406098933
H           -6.82080319086411        4.18429643699199        0.59442809813723
H           -5.38278307821361        4.19536664455991        2.59990756802715
H           -4.16600829181557        2.14821242637922        3.24854500990352
H           -4.37024954763861        0.10720684810366        1.88712288726406
H           -6.81237190861119       -1.44072565176223       -2.56668363488150
H           -9.11564937209672       -2.18908590914094       -2.97050836344120
H          -10.85449816298683       -1.83465774576286       -1.25563549443293
H          -10.26833576296127       -0.72805065231632        0.87199076371697
H           -7.96167347682281        0.01076765977193        1.28449764042111
H           -3.61529101671241        1.50612000983719       -0.89675890804170
H           -1.24593272995886        2.00763420929487       -0.65750515774248
H            0.43857178193829        2.14523304493715        0.79369454218224
H            2.79998350017942        2.62119718975744        1.17318379643930
H            5.09373961316171        2.00482714292769        1.03614829138809
H            6.02297189145604        2.25218894513981       -1.33872765425608
H            7.98977496429146        3.26879328820313       -2.40188258071250
H           10.23865638550078        2.31983215990627       -2.01999333495410
H           10.50596302349799        0.36868947330082       -0.53047585535296
H            8.55743957504603       -0.63157144032924        0.56293377600119
H            4.47733370001959       -0.80736821159387        2.30859015121817
H            4.26113727301146       -3.14837300666624        3.00151398755246
H            5.54364019273472       -4.91449170475217        1.84271148095834
H            7.01966497649373       -4.31452875963411       -0.04435228592036
H            7.21865461708232       -1.98525847531373       -0.76920559716770
H            3.84556405526658       -1.05094673085152       -0.80602237190011
H            1.48641047139368       -1.51309942234479       -1.17617460303212
H           -0.40676645344615       -2.16480762544810       -0.20380021470865
H           -2.78078763339825       -2.66273044395885       -0.47096793243349
