  70
       -100.80522362
 C         -4.8032166689       -1.0641803850       -0.6355511763
 C         -5.8736871483       -0.3239363140       -0.2718862804
 C         -5.7615637438        0.9492822634        0.4597410050
 C         -6.4841590225        2.0656404481        0.0442881949
 C         -6.3968147722        3.2566855816        0.7410890737
 C         -5.6005608054        3.3454962521        1.8707779288
 C         -4.8922982364        2.2351506952        2.3019060514
 C         -4.9711402842        1.0456493417        1.6037750657
 C         -7.2364853598       -0.8035502207       -0.5253164292
 C         -7.5458707557       -1.5250835311       -1.6790608379
 C         -8.8318463528       -1.9772255794       -1.9042326995
 C         -9.8338153869       -1.7207627593       -0.9825751395
 C         -9.5407844854       -1.0016877508        0.1649346323
 C         -8.2575377563       -0.5430736082        0.3903817448
 C         -3.4088861702       -0.6994134013       -0.5411050386
 C         -2.9521924019        0.6214742268       -0.6541484863
 C         -1.6169525067        0.9207279591       -0.5515578565
 C         -0.6517953478       -0.0796906623       -0.3382700940
 C          0.7492319910        0.2388693300       -0.2051814167
 C          1.1753634154        1.4977649333        0.2799903257
 C          2.4945151059        1.7969509515        0.4252812362
 C          3.5189389320        0.8519512198        0.1063063243
 C          4.8482768754        1.1692536531        0.3136272256
 C          5.9755665826        0.2751659114        0.1758418935
 C          7.1742053623        0.7887256084       -0.4159801014
 C          7.1136718603        1.8682390423       -1.3206856538
 C          8.2567834966        2.3906794782       -1.8811858712
 C          9.5024067097        1.8711841948       -1.5527087564
 C          9.5867682621        0.8226906069       -0.6458849609
 C          8.4489374366        0.2866685008       -0.0859184415
 C          5.8866164744       -1.0659156973        0.6732333479
 C          5.0174070190       -1.3857094023        1.7370788085
 C          4.9072207116       -2.6770358849        2.1996140355
 C          5.6452041379       -3.6994867580        1.6175424374
 C          6.4964091523       -3.4093853270        0.5587006317
 C          6.6224121602       -2.1195199698        0.0942666330
 C          3.0797463499       -0.3980679181       -0.4324867368
 C          1.7557368512       -0.6857884791       -0.5645064375
 C         -1.1102678690       -1.4066383719       -0.2674586698
 C         -2.4458949154       -1.7050345214       -0.3744767718
 H         -4.9860344752       -2.0599694455       -1.0224735190
 H         -7.1056606814        1.9959666502       -0.8374596112
 H         -6.9546631751        4.1181429587        0.4033478449
 H         -5.5358629333        4.2753129053        2.4165643403
 H         -4.2781347754        2.2967877182        3.1885926527
 H         -4.4244047795        0.1780973978        1.9436309903
 H         -6.7758308365       -1.7106936016       -2.4137160231
 H         -9.0562448695       -2.5292696666       -2.8055872905
 H        -10.8380439625       -2.0767444829       -1.1591881867
 H        -10.3175270533       -0.7983358543        0.8878915698
 H         -8.0333148057        0.0100139307        1.2913285348
 H         -3.6606131948        1.4113998545       -0.8525602061
 H         -1.3007361826        1.9452736691       -0.6784696181
 H          0.4331965328        2.2243418055        0.5764299746
 H          2.7929254183        2.7580180950        0.8204469258
 H          5.0780990787        2.1891896095        0.6003012781
 H          6.1464560052        2.2619875834       -1.5983551362
 H          8.1844650770        3.2084661866       -2.5840535977
 H         10.3977960760        2.2844247511       -1.9920889144
 H         10.5546390551        0.4288496431       -0.3698346943
 H          8.5314663763       -0.4979393773        0.6517179751
 H          4.4555921071       -0.5937759789        2.2096409663
 H          4.2435809981       -2.8953561389        3.0240975026
 H          5.5541218409       -4.7121778321        1.9804912515
 H          7.0586231658       -4.2038698070        0.0888125300
 H          7.2525664530       -1.9140512175       -0.7587175187
 H          3.8207479614       -1.1090426964       -0.7635391059
 H          1.4670852749       -1.6304419870       -1.0014854758
 H         -0.4052554889       -2.2050890796       -0.0903564735
 H         -2.7714949445       -2.7336869206       -0.2998170348
