70
 energy: -100.878156122243 gnorm: 0.000059529224 xtb: 6.7.1 (edcfbbe)
C           -4.86866224318951       -1.14920662617185       -0.39558603585799
C           -5.90795952468293       -0.34176223356533       -0.11923678259042
C           -5.74597667660340        1.04170450661378        0.36500708086565
C           -6.46113582616683        2.07962836535292       -0.22688053082163
C           -6.32468728599419        3.37642218487414        0.23311840730024
C           -5.48496003938766        3.65144500452702        1.29937911537207
C           -4.78295727607143        2.62206568421563        1.90533259424759
C           -4.91139005555196        1.32611356760618        1.44322552964249
C           -7.29190068926879       -0.82389485389186       -0.23095165209907
C           -7.66931870888386       -1.70554931518944       -1.24299382575526
C           -8.97455197020429       -2.14944891931924       -1.34008396489761
C           -9.92616390048107       -1.72355853577619       -0.42834497234445
C           -9.56387093145383       -0.84575444349331        0.58013259900198
C           -8.26106870187783       -0.39588890605011        0.67631333571777
C           -3.45945108636928       -0.78749413236436       -0.40629828261117
C           -3.00949379896842        0.46396878985808       -0.83165634761619
C           -1.66475492329913        0.76585500819342       -0.83686346782900
C           -0.71530214261962       -0.16979310944845       -0.42587406077716
C            0.71446277503369        0.15772538952742       -0.42590586489644
C            1.15885685282046        1.41729647510977       -0.02602561430583
C            2.50305874803828        1.72351165773629       -0.02560997576640
C            3.45765226221579        0.77931219405279       -0.40938955892083
C            4.86591467905350        1.14465965753656       -0.40243474547424
C            5.90884569023816        0.34164162450430       -0.12683998554384
C            7.28995544619773        0.83078090565649       -0.24354221939849
C            7.65954540992937        1.71071985448149       -1.25999821503547
C            8.96117078970427        2.16425271617986       -1.36058089190383
C            9.91696182812459        1.74975461365730       -0.44797060961149
C            9.56266581951161        0.87306303607107        0.56431320983037
C            8.26347363134653        0.41348431041971        0.66395332947071
C            5.75318768838295       -1.04105392829975        0.36129658932209
C            4.91773541266222       -1.32634826327388        1.43867850270904
C            4.79309165327467       -2.62175396382091        1.90326111737241
C            5.50003126105520       -3.64982891765239        1.30084642604169
C            6.34124486023448       -3.37381242781718        0.23601773976088
C            6.47379938303161       -2.07750448058278       -0.22654545213888
C            3.00920620490404       -0.47338580972533       -0.83266136709441
C            1.66481434122834       -0.77716697513716       -0.83646083319110
C           -1.16101939142985       -1.42866172084630       -0.02538019155512
C           -2.50574231271674       -1.73294158376475       -0.02337523940174
H           -5.07255918715531       -2.18971955736336       -0.61884983925476
H           -7.11698641856631        1.86401636382639       -1.05880286401642
H           -6.87800164566487        4.17488822486270       -0.23986305574451
H           -5.38155773578866        4.66421349648269        1.66036138116581
H           -4.13463246837649        2.83049757645559        2.74406966831247
H           -4.36874454770845        0.52240060969804        1.91929897916330
H           -6.93770451116180       -2.02544089070654       -1.97073342356854
H           -9.25296112514546       -2.82732440282127       -2.13415782967345
H          -10.94589056026414       -2.07087546623118       -0.50586057593643
H          -10.30136791468297       -0.50941307827705        1.29448884023562
H           -7.98241455692682        0.28468378131073        1.46820075257118
H           -3.72230038698436        1.19588317910799       -1.18023563217866
H           -1.33887093501691        1.73344133826260       -1.19020133868094
H            0.44141451125288        2.15492881958668        0.30373647026623
H            2.82954263234666        2.70342123968517        0.29458171278345
H            5.06606053158783        2.18530336117642       -0.62858632039757
H            6.92460387305697        2.02194117652602       -1.98814356894438
H            9.23332530351192        2.84098323802751       -2.15779616069944
H           10.93376233793524        2.10504324206501       -0.52779711135680
H           10.30363332585991        0.54545090083431        1.27912762783315
H            7.99094052986451       -0.26605692379567        1.45886476777246
H            4.37122421326044       -0.52369142873306        1.91207731284715
H            4.14368590915245       -2.83079036945902        2.74101538499781
H            5.39917298109788       -4.66229078706609        1.66341977716183
H            6.89857274158094       -4.17121805030235       -0.23402484976901
H            7.13066666425374       -1.86133045005390       -1.05751934417740
H            3.72290831788778       -1.20458555208177       -1.18099955429580
H            1.33993617920014       -1.74557645352430       -1.18849766425677
H           -0.44428736510271       -2.16719370469442        0.30394610485966
H           -2.83323098830595       -2.71219160963839        0.29779447067535
