97
 energy: -161.662467348484 gnorm: 0.000040897579 xtb: 6.7.1 (edcfbbe)
F           -4.19357653701941       -4.61583674613093       -4.08620259292791
C           -4.51111501299534       -4.85208989627270       -2.79974897050699
F           -5.53615521545538       -5.73452307981773       -2.83643959461886
F           -3.47256408273625       -5.52062933634778       -2.27404724712928
C           -4.86241807203827       -3.60376147018435       -2.04630695955303
C           -4.48841568787587       -3.46075662723034       -0.71602745227143
C           -4.84277046174962       -2.31647712196534       -0.02670439718010
C           -5.57339917955416       -1.31816348555936       -0.66524421966905
N           -5.90230869191655       -0.14231353089706        0.02841990169582
C           -4.98713370041867        0.74686306616500        0.56045258912934
C           -3.54266995825534        0.58569014265387        0.49786475351625
C           -2.88625611602005        0.09171352884512       -0.62839529560651
C           -1.51134163505616       -0.03153744570102       -0.63632609891159
C           -0.75140707052633        0.33019994617885        0.47479658401572
C            0.70990198002361        0.17891410851669        0.47043336103402
C            1.37779611570129       -0.30495477249883        1.59569677875657
C            2.74871440167747       -0.44970590346104        1.59396538239752
C            3.49915848630942       -0.09893843691404        0.47062417039550
C            4.93972947363510       -0.28517344248022        0.51234584609714
N            5.52128690326150       -1.26407923241433        1.16300699993917
C            6.86053376430772       -1.15248127979819        0.93991064454478
C            7.79610985714039       -2.08222338537991        1.55670658560410
C            7.36227226698395       -3.36875892425671        1.87588665965858
C            8.22398554284566       -4.27403002446159        2.46464242218203
C            9.53001955761275       -3.90819992123976        2.74932628118434
C            9.96438050385787       -2.62661482339654        2.45130210561071
C            9.10559637004940       -1.71638064698811        1.86375178549777
C            7.09977015667620       -0.06333688959285        0.11763419878186
C            8.33893898764740        0.47484148771650       -0.43097385364727
C            9.23657683705378       -0.37277093259636       -1.07997504626554
C           10.40982098044510        0.12774218928596       -1.61149388992291
C           10.70280829242259        1.47851917780991       -1.50647758093363
C            9.81912284296596        2.32586634894602       -0.85893049779529
C            8.64441502524883        1.83048250361326       -0.32326677299996
N            5.86353070859826        0.48782078011628       -0.14194364916827
C            5.62616152854982        1.65504019404257       -0.89501827807641
C            4.91922501286070        2.70938239416571       -0.32646073622926
C            4.69462047469998        3.85884538330736       -1.06168302252761
C            5.17876846423583        3.96475448456415       -2.35568402929079
C            5.88464176717230        2.91432654413937       -2.91878803491052
C            6.10957712652756        1.75736663362545       -2.19441788120487
C            2.83401035632747        0.36943902251379       -0.66186771467918
C            1.46027751013565        0.50388826541638       -0.65835932025445
C           -1.41083835821849        0.84600016733788        1.59077481575330
C           -2.78288971417064        0.98032977322066        1.60009224648409
N           -5.57096735197014        1.77526630761738        1.11828145610321
C           -6.90886883502226        1.58475238309908        0.95911536036850
C           -7.96552333673082        2.45374325199467        1.35221023776015
C           -7.70531498208144        3.67840112779796        1.97730586460839
C           -8.73708699590131        4.52088421115756        2.30940591349688
C          -10.04715002681326        4.14787202351480        2.01357377583019
C          -10.31512629103399        2.94333988322620        1.40568583596014
C           -9.28888771353557        2.04928392563793        1.06155430932167
C           -9.54165610741571        0.75231866862980        0.45681023304252
C          -10.84614691797739        0.28110374107006        0.24747885087207
C          -11.09735671623559       -0.96481917943070       -0.27714309433654
C          -10.04166076899334       -1.81190855203000       -0.60021095350777
C           -8.74892366576288       -1.38566775494264       -0.41839532025388
C           -8.47018622328496       -0.10578626130113        0.08325564605307
C           -7.15032093982848        0.38687867883662        0.29124579121071
C           -5.94530052220945       -1.46758771819061       -2.00119657759930
C           -5.59414170139414       -2.61098797914423       -2.69040101548767
H           -3.92309576847180       -4.23752616691671       -0.22551791436321
H           -4.55588458718104       -2.19259064678187        1.00581365777229
H           -3.44614844591271       -0.17805057993401       -1.51122927656286
H           -1.02038500588648       -0.43083051959602       -1.51137911563217
H            0.81192601206910       -0.58925545324569        2.47049729362683
H            3.26575697200427       -0.83695030221160        2.45866914190670
H            6.34114614583827       -3.63895060691720        1.65245678252670
H            7.87715868523529       -5.26958313288283        2.70275814474113
H           10.20511020662426       -4.61670790686358        3.20715136196831
H           10.97797382256701       -2.33166216841383        2.68330752637770
H            9.44738660407019       -0.71415044087536        1.65082410595591
H            9.00293784679734       -1.42464599537202       -1.16284068505422
H           11.09660378257284       -0.53817765863924       -2.11338707804734
H           11.61877351918636        1.86819245957449       -1.92542850043867
H           10.04544513563573        3.37825211005742       -0.76764345467541
H            7.96542543311415        2.49437471350104        0.19264481731793
H            4.55134859817025        2.61945945513567        0.68525796097525
H            4.14487829115974        4.67546807546324       -0.61850823720592
H            5.00566863060449        4.86557329729337       -2.92468382709633
H            6.26231717541509        2.99226774251614       -3.92719097206152
H            6.65491363075978        0.93285968119401       -2.62921225908713
H            3.38844273122210        0.61398656886113       -1.55578971851254
H            0.96320349865933        0.88299467499591       -1.53905943906054
H           -0.83724151337442        1.16072425475055        2.44976816115914
H           -3.29176521946944        1.38930705276363        2.45947454124576
H           -6.67629856057612        3.93504957630018        2.17770531655813
H           -8.53966281520095        5.46782673127881        2.78999236224896
H          -10.86201051985560        4.81172830309081        2.26428709901963
H          -11.34361999991972        2.69982442682330        1.19227827663775
H          -11.68775567214212        0.89959719863539        0.51354361354262
H          -12.11613943737343       -1.29236948814840       -0.42318560447228
H          -10.23564664942445       -2.80185792238173       -0.98586650179681
H           -7.93553499602934       -2.05515698518997       -0.64737551529987
H           -6.51029526800782       -0.68779967960248       -2.48894954309609
H           -5.87680096764658       -2.73259721226386       -3.72460981001645
