  97
       -161.51971937
 F         -4.0420758830       -5.6031308679       -1.8540005907
 C         -4.3691198072       -5.2251797681       -0.6086166485
 F         -5.3897766706       -6.0178167223       -0.2292817510
 F         -3.3235661869       -5.5862593389        0.1720985128
 C         -4.6904661219       -3.7697542010       -0.4915444442
 C         -5.3826510464       -3.3192076540        0.6333855681
 C         -5.6635754519       -1.9792010170        0.7735435040
 C         -5.2481037904       -1.0688001545       -0.2060142816
 N         -5.5079551112        0.2929239301       -0.0598330451
 C         -4.5414051126        1.3145147237       -0.0703395209
 C         -3.1402170783        1.1678037698       -0.0747881903
 C         -2.4324212138       -0.0219965835        0.2414190173
 C         -1.0713147384       -0.0585946131        0.2147561477
 C         -0.2847218834        1.0777959357       -0.1135081633
 C          1.1402228603        1.0155389401       -0.1417950228
 C          1.9494728302        2.1750171705       -0.0186729223
 C          3.3106630196        2.0995337585       -0.0005515506
 C          3.9808768132        0.8585633886       -0.1002166462
 C          5.4050360959        0.8629065332       -0.0552910181
 N          6.1268860948        1.9477554461       -0.2957223970
 C          7.4240331785        1.5932693792       -0.2430049743
 C          8.4759309212        2.5775091191       -0.4319064237
 C          8.2049892841        3.7115135698       -1.1991068875
 C          9.1769606321        4.6723821466       -1.3943267929
 C         10.4301094421        4.5211043247       -0.8215392434
 C         10.7004104469        3.4083789350       -0.0411462762
 C          9.7327461282        2.4422120736        0.1575741307
 C          7.5253508113        0.2259726906        0.0478421083
 C          8.6907423257       -0.6292462493        0.1828340441
 C          8.8294575366       -1.5049637834        1.2608203258
 C          9.9443566683       -2.3148566931        1.3615191593
 C         10.9326709900       -2.2683439992        0.3919169628
 C         10.8056312366       -1.3976108403       -0.6795163187
 C          9.6964361837       -0.5826484950       -0.7857962739
 N          6.2352214646       -0.2205737868        0.1821242813
 C          5.8719904880       -1.5247735879        0.5625766266
 C          6.3277636110       -2.6167799664       -0.1683104983
 C          5.9906707432       -3.8964991741        0.2325322741
 C          5.2025611240       -4.0923548782        1.3546974963
 C          4.7490897297       -3.0027974362        2.0814062831
 C          5.0846742448       -1.7193995505        1.6941736205
 C          3.1899737740       -0.2943870875       -0.2888038697
 C          1.8267800762       -0.2152527383       -0.3024769821
 C         -0.9993133539        2.2795362726       -0.3753474459
 C         -2.3573205499        2.3243980891       -0.3534792221
 N         -5.1253801879        2.5152567344        0.0196420754
 C         -6.4339934349        2.2993364335        0.1348853018
 C         -7.4598528646        3.2683958804        0.3354256395
 C         -7.1483986286        4.6238992918        0.4702426230
 C         -8.1414628921        5.5443995580        0.7127566060
 C         -9.4572884383        5.1098492346        0.8318886959
 C         -9.7754427440        3.7753660678        0.6924996208
 C         -8.7938614015        2.8112021109        0.4283322552
 C         -9.1009476032        1.4041366638        0.2249554507
 C        -10.4203661279        0.9449259271        0.1869110905
 C        -10.7327757366       -0.3741911255       -0.0610652070
 C         -9.7176168034       -1.2942842059       -0.3099265926
 C         -8.4079852865       -0.8904647037       -0.2717522263
 C         -8.0606489986        0.4445494155        0.0181832365
 C         -6.7293211438        0.9142500514        0.0674155699
 C         -4.5495674222       -1.5282670034       -1.3282716734
 C         -4.2731352702       -2.8697478716       -1.4701783138
 H         -5.6922120389       -4.0245862376        1.3890276235
 H         -6.1960803867       -1.6184682731        1.6403457247
 H         -2.9695308304       -0.8979908746        0.5666813991
 H         -0.5768555485       -0.9721017851        0.5081559021
 H          1.4791898093        3.1372745302        0.1082370981
 H          3.9152180425        2.9853630813        0.1148333777
 H          7.2233290847        3.8145862310       -1.6347828024
 H          8.9594800158        5.5436398912       -1.9946401120
 H         11.1916847631        5.2711168081       -0.9761661856
 H         11.6702476149        3.2956109587        0.4212886129
 H          9.9449522527        1.5908527246        0.7869640199
 H          8.0727181521       -1.5336939620        2.0312795386
 H         10.0422278637       -2.9845977487        2.2030240888
 H         11.8001866221       -2.9057957807        0.4717622576
 H         11.5745086472       -1.3563125097       -1.4366891850
 H          9.5925861333        0.0933826363       -1.6218943712
 H          6.9368014690       -2.4565226103       -1.0455023757
 H          6.3436309633       -4.7429191797       -0.3367738912
 H          4.9412444968       -5.0930080196        1.6630655854
 H          4.1365069234       -3.1520518944        2.9576007117
 H          4.7398537525       -0.8635915479        2.2556244163
 H          3.6612542588       -1.2488477523       -0.4660502182
 H          1.2602687833       -1.1145878365       -0.4890378731
 H         -0.4525346448        3.1713006933       -0.6389213059
 H         -2.8877998054        3.2377210685       -0.5706197382
 H         -6.1128491078        4.9143819215        0.3865039477
 H         -7.9044832636        6.5923300440        0.8179668503
 H        -10.2419211784        5.8238884946        1.0356475058
 H        -10.8091351278        3.4871009735        0.7983813667
 H        -11.2330639296        1.6361974210        0.3408550498
 H        -11.7650433379       -0.6893600619       -0.0812548511
 H         -9.9596259810       -2.3215163967       -0.5382736475
 H         -7.6315295031       -1.6029588348       -0.4940830727
 H         -4.2294025732       -0.8209564577       -2.0772688642
 H         -3.7432365688       -3.2274327386       -2.3389888608
