  66
       -107.57590962
 C          0.6039811837       -0.0435301884        0.0340133820
 C         -0.6043522955       -0.0526509723        0.0317160103
 C         -2.0134843079       -0.0494054572        0.0252756749
 C         -2.7111101666       -0.0288100816       -1.1855740807
 C         -4.0896052801       -0.0196156600       -1.1932910548
 C         -4.7978207225       -0.0255669578        0.0063018044
 N         -6.2091563344       -0.0059129484       -0.0053934953
 C         -6.9400038499       -1.0821866276        0.5012765910
 C         -6.3290486152       -2.2301498881        0.9897436068
 C         -7.0857316856       -3.2825537561        1.4830787933
 C         -8.4636254524       -3.2098786222        1.4868642770
 C         -9.0899000581       -2.0821549239        0.9756392929
 C         -8.3406282910       -1.0314221607        0.4811585786
 O         -9.0321359019        0.0364900651       -0.0356361015
 C         -8.2982981166        1.0887455425       -0.5252741749
 C         -9.0048521006        2.1668616352       -1.0236561305
 C         -8.3342547966        3.2798498289       -1.5100677977
 C         -6.9552639618        3.3103481040       -1.4773758960
 C         -6.2413599117        2.2306484770       -0.9794490623
 C         -6.8968181660        1.0971330828       -0.5155355489
 C         -4.1063233480       -0.0467431256        1.2152874295
 C         -2.7276293474       -0.0612562007        1.2263095146
 C          2.0130899409       -0.0358456878        0.0254130750
 C          2.7096868247       -0.0516627801       -1.1860299998
 C          4.0882989542       -0.0373952785       -1.1955793627
 C          4.7975989217       -0.0122397446        0.0030706020
 N          6.2089220128        0.0011623788       -0.0069277843
 C          6.9101642074        1.0967513802        0.5007631608
 C          6.2682825681        2.2366997915        0.9680192085
 C          6.9952085878        3.3084834636        1.4642207801
 C          8.3738821744        3.2635260041        1.4919315008
 C          9.0310748125        2.1445539148        1.0008774960
 C          8.3114657218        1.0746121840        0.5033635560
 O          9.0322710222        0.0165245971        0.0071064744
 C          8.3276409988       -1.0460143929       -0.5029667567
 C          9.0642059920       -2.1048778869       -0.9993384728
 C          8.4247374010       -3.2279798058       -1.5041490671
 C          7.0464309992       -3.2879359679       -1.4917679428
 C          6.3024722778       -2.2274616819       -0.9963326441
 C          6.9266013475       -1.0838103514       -0.5143987870
 C          4.1069461230        0.0010837562        1.2128503490
 C          2.7283358463       -0.0078402228        1.2256365185
 H         -2.1605271442       -0.0255447584       -2.1146796743
 H         -4.6310526024       -0.0090045383       -2.1278894891
 H         -5.2529460179       -2.3072031923        0.9777950452
 H         -6.5836320024       -4.1601620166        1.8606605086
 H         -9.0569052364       -4.0237441325        1.8728761033
 H        -10.1648378390       -2.0005963858        0.9464942539
 H        -10.0820307503        2.1177573313       -1.0178612698
 H         -8.8943247958        4.1152136595       -1.8996481247
 H         -6.4190024971        4.1758662575       -1.8352962346
 H         -5.1639433951        2.2746287000       -0.9451145913
 H         -4.6602542266       -0.0463778413        2.1426758919
 H         -2.1902241423       -0.0730440445        2.1630448960
 H          2.1581996478       -0.0678797782       -2.1144958481
 H          4.6283877185       -0.0407291343       -2.1310854249
 H          5.1912487040        2.2916832349        0.9378117832
 H          6.4694089279        4.1791452187        1.8250651118
 H          8.9439926091        4.0923318216        1.8808685252
 H         10.1076422689        2.0844683581        0.9905476423
 H         10.1399104691       -2.0331538200       -0.9766408827
 H          9.0081096184       -4.0481946508       -1.8917155557
 H          6.5340391324       -4.1617929759       -1.8640688135
 H          5.2259385569       -2.2950959135       -0.9775698809
 H          4.6621331946        0.0158098618        2.1394363599
 H          2.1918478269        0.0005625121        2.1629426511
