  140
       -177.44864006
 C          5.7499543417       -4.6451272249        2.5070471885
 C          6.3592023254       -3.5807365437        1.5910876645
 C          7.5896539153       -2.9903769087        2.2942072745
 C          6.7850659756       -4.2635360604        0.2835090961
 C          5.3847084213       -2.4609043243        1.2690518439
 C          4.0789762246       -2.4258094422        1.7457660767
 C          3.2194763839       -1.3953986493        1.4220909686
 C          3.6348400179       -0.3513241718        0.5966034635
 N          2.7357771817        0.6480668793        0.2388128176
 C          3.1617459430        1.9428007414       -0.0344020917
 C          2.4683572866        2.7213423677       -0.9631169235
 C          2.8691835641        4.0109147661       -1.2320252856
 C          3.9722506461        4.5851128536       -0.6015618322
 C          4.3731829190        6.0107710387       -0.9411205872
 C          5.6030005242        6.4803960729       -0.1594968556
 C          3.2058835591        6.9506644426       -0.6078664796
 C          4.6972733801        6.0973282077       -2.4394981753
 C          4.6535663220        3.8035285088        0.3252683454
 C          4.2594498797        2.5113409293        0.6115087811
 C          1.3774087781        0.3309007943        0.1214190347
 C          0.4136064054        1.0802771278        0.8582547305
 C          0.7699408647        2.0835350476        1.7631663600
 C         -0.1789271579        2.7756747990        2.5063649559
 C         -1.5217453035        2.4521923224        2.4193678361
 C         -2.6173675408        3.1740650461        3.1833809219
 C         -2.0748446981        4.3094328366        4.0548897188
 C         -3.3491286626        2.1772282669        4.0931118308
 C         -3.6096533123        3.7710481879        2.1742276105
 C         -1.8808419750        1.4040020600        1.5684935656
 C         -0.9647063954        0.7371617658        0.7565106656
 C         -1.3622523853       -0.3364685184       -0.1021832862
 N         -2.7213307975       -0.6451048639       -0.2272289415
 C         -3.6181894071        0.3650579489       -0.5602169935
 C         -4.9291482637        0.3784737891       -0.0773153399
 C         -5.7753014710        1.4211511466       -0.3857197592
 C         -5.3652485311        2.4947377639       -1.1756759064
 C         -6.3374774057        3.6252349702       -1.4657480533
 C         -6.7574740614        4.2753238585       -0.1397528995
 C         -5.7277944996        4.7112099900       -2.3556722971
 C         -7.5721438240        3.0573134178       -2.1798465508
 C         -4.0595498758        2.4702829087       -1.6533200927
 C         -3.2016190877        1.4301122604       -1.3579281449
 C         -3.1547368767       -1.9440988022        0.0146627780
 C         -2.4752366247       -2.7463447752        0.9304005536
 C         -2.8771253349       -4.0457441126        1.1655142628
 C         -3.9699861591       -4.5995311174        0.5077755664
 C         -4.4445214357       -6.0247930079        0.7356872936
 C         -5.8967994803       -5.9981730738        1.2329959103
 C         -4.3636666346       -6.7958159883       -0.5897383850
 C         -3.5984988080       -6.7683204469        1.7726047731
 C         -4.6422417291       -3.7892174650       -0.4065690528
 C         -4.2491584522       -2.4929737031       -0.6574629802
 C         -0.3977153867       -1.0864360127       -0.8386469527
 C         -0.7514927415       -2.0862592340       -1.7483691292
 C          0.2000494705       -2.7866986078       -2.4807068634
 C          1.5446595749       -2.4757781197       -2.3778478625
 C          2.6438666500       -3.2106282756       -3.1240972447
 C          3.6196157982       -3.8081959027       -2.0990739793
 C          2.1030961008       -4.3475007407       -3.9946419544
 C          3.3937874042       -2.2252056115       -4.0313783243
 C          1.9018213711       -1.4262863885       -1.5280001074
 C          0.9817268464       -0.7493820056       -0.7289098370
 C          4.9455118781       -0.3760120172        0.1134819212
 C          5.7930310912       -1.4088723827        0.4497196948
 H          6.4880772931       -5.4199693859        2.7033621999
 H          4.8869765734       -5.1135295185        2.0398765404
 H          5.4511659489       -4.2159406678        3.4605145907
 H          8.1030713266       -2.2741824160        1.6589318736
 H          7.2917397166       -2.4827850442        3.2093677424
 H          8.2906187931       -3.7817231295        2.5507195845
 H          7.2691094762       -3.5617860625       -0.3896587707
 H          5.9154420628       -4.6771302081       -0.2219645365
 H          7.4823308262       -5.0718995320        0.4926425016
 H          3.7085966503       -3.2085727274        2.3863850050
 H          2.2106530301       -1.3893833481        1.8060180543
 H          1.6160222184        2.2964869976       -1.4713652439
 H          2.3077373038        4.5776409151       -1.9588742959
 H          5.8455135682        7.5019463906       -0.4449669636
 H          5.4142067805        6.4669742219        0.9113709362
 H          6.4667458101        5.8567576980       -0.3778363771
 H          2.9548339988        6.8774412675        0.4483020762
 H          2.3202233626        6.7011273982       -1.1853540897
 H          3.4784664395        7.9805381810       -0.8281566554
 H          4.9967686501        7.1100019524       -2.7007070351
 H          5.5129682361        5.4211028165       -2.6871101892
 H          3.8370403281        5.8292983127       -3.0463462172
 H          5.5059185478        4.1975677645        0.8538142238
 H          4.7936721890        1.9413611653        1.3576130763
 H          1.8079211912        2.3389575782        1.8985260476
 H          0.1665916337        3.5619854487        3.1572350533
 H         -2.8990329655        4.8022844645        4.5669362567
 H         -1.5609035239        5.0523481089        3.4494866147
 H         -1.3889596220        3.9290172960        4.8081486618
 H         -2.6498545278        1.7216837986        4.7911607750
 H         -3.8186142695        1.3868535162        3.5145632984
 H         -4.1229743451        2.6876274928        4.6627288206
 H         -4.4058880231        4.2962996469        2.6985032424
 H         -4.0540584837        2.9986217959        1.5545019006
 H         -3.0987105196        4.4771562832        1.5224061534
 H         -2.9111876106        1.0978854230        1.5414753717
 H         -5.2707776042       -0.4203929321        0.5645864281
 H         -6.7766905214        1.3987602924        0.0164896707
 H         -7.2380805805        3.5568583679        0.5180988715
 H         -5.8856715292        4.6766851005        0.3715410144
 H         -7.4559697143        5.0882840586       -0.3257304165
 H         -6.4646974558        5.4922495429       -2.5309251502
 H         -4.8630705692        5.1659789615       -1.8783647723
 H         -5.4315278353        4.3056545236       -3.3202061292
 H         -8.2708404918        3.8575488142       -2.4140257972
 H         -7.2789810741        2.5719428335       -3.1084901017
 H         -8.0864858304        2.3273295809       -1.5612497623
 H         -3.6880062297        3.2695190543       -2.2725429863
 H         -2.1930951729        1.4329259776       -1.7425777028
 H         -1.6275607902       -2.3362058065        1.4583069085
 H         -2.3196167401       -4.6231475843        1.8841577034
 H         -6.2491547556       -7.0109817255        1.4159406783
 H         -6.5564072166       -5.5349259520        0.5046150074
 H         -5.9652695868       -5.4354981318        2.1618254675
 H         -3.3408135181       -6.7967990071       -0.9607936795
 H         -5.0002116144       -6.3479452894       -1.3476103639
 H         -4.6800876373       -7.8264366294       -0.4443775001
 H         -2.5616639145       -6.8390448737        1.4524272250
 H         -3.6404669193       -6.2724015037        2.7395556153
 H         -3.9819709992       -7.7790330312        1.8961265072
 H         -5.4898398606       -4.1774588725       -0.9506094485
 H         -4.7748122674       -1.9025966096       -1.3936731009
 H         -1.7894580009       -2.3343530791       -1.8959309135
 H         -0.1450843001       -3.5704632588       -3.1349148817
 H          4.0623646195       -3.0348620730       -1.4791612889
 H          3.0958567316       -4.5062205284       -1.4487459541
 H          4.4182854951       -4.3427298549       -2.6100663535
 H          1.4305088777       -3.9664500935       -4.7594727526
 H          1.5747174573       -5.0815535518       -3.3909132541
 H          2.9296081515       -4.8510428230       -4.4922726855
 H          3.8636912172       -1.4355495854       -3.4521314714
 H          4.1693359789       -2.7454150361       -4.5897970413
 H          2.7057855794       -1.7677351172       -4.7393657659
 H          2.9339749501       -1.1276545767       -1.4906713743
 H          5.2856693685        0.4057605963       -0.5498783062
 H          6.7943879612       -1.3961041536        0.0470169053
