140
 energy: -177.567412900394 gnorm: 0.000066127882 xtb: 6.7.1 (edcfbbe)
C            7.00727247206055       -4.67256936866237       -0.61893205151447
C            5.77281874778646       -4.48020622064803       -1.51274313098109
C            6.21674644136275       -4.17757414558645       -2.95184285062959
C            4.98401083345430       -5.79325800737154       -1.52307896043072
C            4.95528781485370       -3.31000919314471       -0.98712300795236
C            3.63128294756403       -3.42534539485336       -0.58050951393450
C            2.92341398804873       -2.34001466415503       -0.09983483349349
C            3.51510836565328       -1.08192278631173       -0.01244372008080
N            2.77857153518460        0.00705147303952        0.45170153648286
C            3.36508064365677        1.08915115208546        1.10606256430823
C            2.80773229173780        2.36077654698924        0.99387699429493
C            3.37018506897734        3.44162594911303        1.64617044298913
C            4.50928006195289        3.30702779830233        2.43098039822457
C            5.16626167572530        4.47179426094208        3.15587787985906
C            4.46222556585830        5.80540924081388        2.88724082865814
C            6.62377500825055        4.60054043386996        2.68815488501786
C            5.12807003023008        4.20499211021694        4.66818174833165
C            5.05003107827263        2.02746473950375        2.54828014905028
C            4.49567796464027        0.93845851527910        1.91002576056916
C            1.38090616764194        0.02163323583038        0.23036311911264
C            0.50339152864124        0.00948473381063        1.32615673930796
C            0.95747800464523       -0.04757508709238        2.66753522499014
C            0.08826637358189       -0.03603596740474        3.71279094224142
C           -1.31193796796704        0.05502629140234        3.51468280731968
C           -2.22794503889408        0.09992892556706        4.72619046528197
C           -3.70609753489800        0.21426538227808        4.34142147815527
C           -1.86061282769172        1.31483746238596        5.59108837289000
C           -2.04229323523139       -1.19267957619501        5.53493489991263
C           -1.77176654054933        0.08434743448177        2.22908668775001
C           -0.90605856360643        0.03219692619536        1.10749116497887
C           -1.40258141354650        0.01072727854024       -0.20750136528357
N           -2.79984479523052       -0.01243835064307       -0.42931870194576
C           -3.39071328319417        1.06116650372428       -1.09415632533267
C           -2.84173304645702        2.33703362261355       -0.98958854545734
C           -3.40799937244245        3.40926246537047       -1.65285010695414
C           -4.54293463472069        3.26150136186631       -2.44128659905201
C           -5.20422156945013        4.41615714535697       -3.17830170045378
C           -5.16394061162639        4.13465633502383       -4.68790466968190
C           -6.66259731446413        4.54295394941553       -2.71273699762562
C           -4.50603941509204        5.75536694540707       -2.92267357631762
C           -5.07570215722975        1.97786197617752       -2.55022136242038
C           -4.51727592018594        0.89739942909843       -1.90121732194369
C           -3.53213897310533       -1.10356368582578        0.03662226296377
C           -2.93196987202944       -2.35930348839856        0.12993273990072
C           -3.64069341260142       -3.44239234517035        0.60492260071277
C           -4.97247681945824       -3.33583320450098        1.00088452876750
C           -5.71340274494279       -4.56856705870497        1.49635813015415
C           -7.16660854661574       -4.27035645804306        1.87808420314714
C           -5.71985715356824       -5.62730045974404        0.38310094156184
C           -4.99784534276143       -5.12489066870622        2.73638653310231
C           -5.55802762721948       -2.07766582369180        0.91462309171152
C           -4.85683946753590       -0.98046587563783        0.45164712028641
C           -0.52474963235989        0.00349100770282       -1.30336499499973
C           -0.97729457307230       -0.06162908110218       -2.64494056957672
C           -0.10766581230557       -0.04361514682420       -3.68984750408283
C            1.29136836551473        0.06383538443172       -3.49142579599879
C            2.20806350826074        0.11696202414016       -4.70211179128376
C            3.68280341394366        0.26755236053056       -4.31666646374460
C            2.05109758371887       -1.18805471533454       -5.49685200645306
C            1.81672957689616        1.31445974575901       -5.58060383487206
C            1.75010913241305        0.09842810021639       -2.20563035209816
C            0.88435948944414        0.03841501326950       -1.08451585817278
C            4.83856372506200       -0.95106129967909       -0.43539565801950
C            5.53534879935733       -2.04517150404735       -0.90258162080185
H            7.59461757749793       -5.51976983796488       -0.96743635634536
H            6.70152978010969       -4.86340151645222        0.40814354792860
H            7.64338950836296       -3.79167036768172       -0.62674466271368
H            6.79829329892902       -5.00789766468742       -3.34740953658952
H            5.34760965782703       -4.03000386151097       -3.59010279898493
H            6.82896780673833       -3.28096192086822       -2.99715960921215
H            5.61720151874361       -6.59319551779776       -1.90214830649878
H            4.11135656393180       -5.72135339676887       -2.16858213081321
H            4.66354463652339       -6.06514744186480       -0.51968647182200
H            3.12345169852967       -4.37527300661898       -0.62438909634021
H            1.89696606851181       -2.46599025728354        0.21391963121659
H            1.92503013864994        2.50077989726455        0.38606360846936
H            2.89919597119697        4.40314918108503        1.52090575032754
H            3.43265124080713        5.78247392359281        3.23735214877847
H            4.97990373092082        6.60208176793797        3.41814824548287
H            4.47290916216471        6.04601942691594        1.82638819076208
H            6.66023409456759        4.76600510075839        1.61295505815851
H            7.19409248916052        3.70374839763356        2.91428128979732
H            7.10349443982951        5.44236521414159        3.18349025911026
H            5.57555569255733        5.03722520386978        5.20790684938650
H            4.09883467520264        4.08857339607036        5.00264790288953
H            5.67329870340262        3.30028495119966        4.92365518619217
H            5.92357421664622        1.86409704656640        3.16191061764532
H            4.93127907818541       -0.04168517526462        2.04271123270334
H            2.01851744778313       -0.10907751044538        2.85565788970506
H            0.48220106131790       -0.09079396157888        4.71621498316139
H           -3.89508945442493        1.12697140512210        3.78043481602903
H           -4.31427580839613        0.24165663861332        5.24346488580320
H           -4.02256800069056       -0.63964264183009        3.74647515331846
H           -1.96535545489427        2.23199075707255        5.01434294992736
H           -0.83674817886765        1.25332965630431        5.94985341567721
H           -2.52074752707794        1.37213879978592        6.45412148543537
H           -2.27769829227605       -2.05741314025251        4.91710615506827
H           -2.70565601853208       -1.19253135041276        6.39742247133885
H           -1.02098495600235       -1.29580787260166        5.89159966907668
H           -2.82713133883319        0.15201268137564        2.03023299759726
H           -1.96234224208862        2.48719274943308       -0.37937621200839
H           -2.94338598256049        4.37461957093245       -1.53333683839242
H           -5.70541951250841        3.22539668660641       -4.93498823165948
H           -5.61440313150700        4.95976926544310       -5.23602312859465
H           -4.13403327788442        4.01909796708461       -5.02058432355022
H           -6.70051887941343        4.71948340349303       -1.63935535602422
H           -7.14602270153972        5.37721835388672       -3.21717174566204
H           -7.22837099723410        3.64102578320156       -2.92971580309088
H           -3.47548937192587        5.73237070262827       -3.26992549772504
H           -5.02538498478686        6.54405772637769       -3.46378431002424
H           -4.52033306705433        6.00783360302282       -1.86461647232642
H           -5.94606290802614        1.80437071944816       -3.16557857231609
H           -4.94641432505797       -0.08634095096901       -2.02796498739690
H           -1.90280411877798       -2.48006779754967       -0.17668394549625
H           -3.13543015317937       -4.39551244925905        0.65623627654130
H           -7.64651933924449       -5.18558063452122        2.21957876930964
H           -7.72651831545063       -3.89610493051835        1.02388112538639
H           -7.21840762509922       -3.54309129408964        2.68533402202885
H           -6.20102670494019       -5.23139325759971       -0.50941004800236
H           -6.26644621947652       -6.51047887258950        0.70766584854005
H           -4.71019292146106       -5.92989706992442        0.11904277326915
H           -3.96900914456972       -5.39382392534444        2.51263232063732
H           -4.99062062980093       -4.38214851203421        3.53194941614352
H           -5.51147641923022       -6.01319475952281        3.09870919674618
H           -6.58005056322796       -1.92527703170736        1.22182553566390
H           -5.33880295920786       -0.01354724271532        0.42247037989258
H           -2.03741464435153       -0.13513234330238       -2.83383693790061
H           -0.50050017938175       -0.10615842367496       -4.69327231459238
H            3.84987183036943        1.18824854426361       -3.76171930466813
H            4.01852990661187       -0.57463533412294       -3.71584121454648
H            4.29118033717160        0.30241395746282       -5.21827979834889
H            1.03155894401606       -1.31840975038109       -5.84981610032385
H            2.30760587210189       -2.04018627050318       -4.86994022297469
H            2.71292259919571       -1.18206349662425       -6.36046918399007
H            2.48036906700827        1.37922068415789       -6.44040022895073
H            0.79688199533604        1.22554446531274       -5.94487885594449
H            1.89650606677762        2.23921787033488       -5.01206912438841
H            2.80460000557951        0.17708563364116       -2.00620289228187
H            5.31587781872370        0.01821486886956       -0.40972381166361
H            6.55659566372835       -1.89637489497454       -1.22076407331591
