140
 energy: -177.506939974456 gnorm: 0.000037940482 xtb: 6.7.1 (edcfbbe)
C            5.91116261856938       -0.74448306172057        5.45236399818205
C            5.89358828243848       -1.77054194408742        4.30867182941719
C            7.34436658459090       -2.08648386832635        3.93147916960961
C            5.23011340310145       -3.06959441801214        4.78962611501019
C            5.09608480404995       -1.20034991111709        3.14612306967918
C            3.76400031210889       -0.83192566688928        3.33462092597840
C            3.00721198096946       -0.29006856857280        2.31881705314836
C            3.55722871755117       -0.09706473956419        1.04997967440551
N            2.77902182932824        0.44576578476573        0.03011242780124
C            3.34515207834318        1.21071941285614       -0.98799950759817
C            2.78261578873677        1.19516450563970       -2.26351617266248
C            3.31846922694060        1.95804309743226       -3.28221065473239
C            4.43463145750987        2.76303317238529       -3.07972615351678
C            5.05891421087032        3.61392412171093       -4.17431556670268
C            6.52334185505102        3.19126673025009       -4.36617095784359
C            4.99558808664517        5.09114972918533       -3.75715586051382
C            4.33978153765260        3.46613729928335       -5.51861536410124
C            4.98523974107718        2.77625645734868       -1.79804620610710
C            4.45851214705749        2.02528150492247       -0.76983692355756
C            1.39382207974642        0.21905468233042        0.02327699695347
C            0.50465768215483        1.33481417178640        0.01005215903523
C            0.94784580587294        2.65925286599228        0.07119081915944
C            0.06531780602417        3.72814202483502        0.01961079225700
C           -1.30128577064751        3.52814022445294       -0.11989968155354
C           -2.24062205058841        4.71988421868888       -0.21105613611822
C           -1.81758899275642        5.61340129273018       -1.38681827754689
C           -2.15406033876205        5.51356444867753        1.10155037616675
C           -3.70089368480644        4.31086011831920       -0.42753158400106
C           -1.75792338075888        2.21087062116199       -0.13486806473574
C           -0.90133058758599        1.11133421181141       -0.02667906869188
C           -1.39493176942053       -0.22949056530732        0.01300000220419
N           -2.78066776826481       -0.45259453338376        0.01818303319737
C           -3.34353425938110       -1.25835742631710       -0.96918331150637
C           -4.46377342368638       -2.05343710159081       -0.72707474707774
C           -4.98665625797471       -2.85610849539288       -1.72210093996551
C           -4.41774377524026       -2.91153541924245       -2.99061631780949
C           -4.95739380165568       -3.79151894373795       -4.10696759355709
C           -6.19282211130663       -4.59199989340832       -3.68343928908862
C           -5.34731493830699       -2.90702356597017       -5.30103018193205
C           -3.86526817090194       -4.78507524557734       -4.53131831241234
C           -3.29473300203587       -2.11669835376419       -3.21897146297244
C           -2.76628100649551       -1.30493391868218       -2.23955113085497
C           -3.56278155222318        0.13175169962379        1.01265262058872
C           -4.88194799284844        0.52656758726112        0.77801267453455
C           -5.62744701111651        1.10286790398790        1.78348443887824
C           -5.10384998881014        1.32429219460069        3.05750539907552
C           -5.97954791815752        1.94866916230247        4.13260826871951
C           -7.20427137209016        1.04935374555537        4.36092699301043
C           -5.24871892810383        2.10734761275055        5.46934837003309
C           -6.43858665313654        3.33994934364355        3.67096957559500
C           -3.78288134707798        0.94532904130733        3.27392252550366
C           -3.02514586075429        0.36008345661040        2.27862978918205
C           -0.50564686221458       -1.34511811816433        0.04740543888521
C           -0.94948151659781       -2.66735267967651        0.14220758365284
C           -0.06647237708975       -3.73692939828404        0.13489528298984
C            1.30230524065760       -3.54087309163415        0.01211772359433
C            2.24070946241254       -4.73574351451619       -0.03695541316554
C            2.10963799102218       -5.52206953191904        1.27628760454780
C            1.85216367095298       -5.63423254369853       -1.22094904027339
C            3.70864241730270       -4.33259260066091       -0.20747411024831
C            1.75934070754153       -2.22452823807436       -0.03537369111746
C            0.90097276141353       -1.12253380447617        0.02333676565744
C            4.88175339553117       -0.48315277896915        0.84352122694485
C            5.63048483590011       -1.01563752304335        1.87481543923996
H            6.50698229115644       -1.11954128699980        6.28193509174325
H            4.90865829405492       -0.54118375921526        5.81859651835124
H            6.34624958404357        0.19274917032247        5.11042722621085
H            7.39137625291524       -2.83536085148688        3.14401773365269
H            7.86757302095216       -1.19066276425703        3.60440410684600
H            7.86582273643947       -2.48187864808799        4.80100069265683
H            5.77279463275155       -3.47303587259542        5.64209488199925
H            5.23698575920158       -3.81298196938673        3.99504692055880
H            4.19942384028657       -2.90081708237192        5.08987251171690
H            3.29980190888324       -0.95900450607353        4.30117183084668
H            1.98187002952089        0.00029404037639        2.49748700083806
H            1.92023163808426        0.57116815076626       -2.44974023469264
H            2.84760261214251        1.90557138598445       -4.25026586128528
H            6.57840198646177        2.13920989791696       -4.63973068431752
H            6.98126716208671        3.77877765233743       -5.15929001250085
H            7.10108758972473        3.33801807601899       -3.45775210360056
H            5.54826295376177        5.26741306555556       -2.83837682791161
H            3.96204146346596        5.39233438686012       -3.59666746330659
H            5.42152660581073        5.71897762727410       -4.53710377949932
H            4.82996180661492        4.09151082040438       -6.26226838964489
H            4.37396261808341        2.43714640521821       -5.86966218098527
H            3.30215079256156        3.78372301662517       -5.44425446494729
H            5.84320595034146        3.39617367239805       -1.58513510173760
H            4.89458513761123        2.08133065441129        0.21744329816424
H            2.00261254220069        2.86933194567399        0.15762152631453
H            0.47318904705732        4.72638440791993        0.07676257451528
H           -0.80891158117549        5.99448054869558       -1.25260723855742
H           -2.49324742452188        6.46193642230345       -1.47562313699685
H           -1.84737349236300        5.04847522707972       -2.31677165773358
H           -1.14687678602067        5.88600760237291        1.26963569208187
H           -2.42624355916597        4.87630035508825        1.94104719335247
H           -2.83412655995084        6.36281075661050        1.07471656781075
H           -3.81538606741493        3.74658656486959       -1.35077939436681
H           -4.32040748315197        5.20311379177519       -0.49801843584817
H           -4.06774202508323        3.71123714522920        0.40231541393748
H           -2.81284989401494        2.02217671223181       -0.22279272116156
H           -4.91277275486733       -2.05844030281806        0.25599084675075
H           -5.85007624092843       -3.45474474398941       -1.48153650438743
H           -5.96209621488729       -5.25985875296752       -2.85650197468151
H           -7.00690068010336       -3.93158274977213       -3.39311672131128
H           -6.53463572455063       -5.19918849535961       -4.51941172208655
H           -4.49011293738692       -2.36308171783675       -5.68816771924998
H           -5.75290384261962       -3.51951102533969       -6.10366868955957
H           -6.10381687060515       -2.18378004118845       -5.00234918730876
H           -3.56980476203491       -5.40315552644031       -3.68550891716574
H           -4.23609187958665       -5.43457677564132       -5.32164410937736
H           -2.98215857852207       -4.27008286042802       -4.89948369632072
H           -2.81738979983961       -2.12078618696650       -4.18728995142696
H           -1.90016505728095       -0.69293909677091       -2.44661149713223
H           -5.31270966626123        0.39491718408851       -0.20431602149757
H           -6.64202564423262        1.39553639642254        1.55832368827888
H           -7.80395916613599        0.95974678129195        3.45926478861885
H           -7.83148558253279        1.46397629673565        5.14742151440197
H           -6.88791564105611        0.05218983901143        4.66136556149962
H           -4.92685190921486        1.14305301753093        5.85635217833089
H           -5.92115581144110        2.55489526973316        6.19868522316944
H           -4.38291368315494        2.75806443241115        5.36791115456180
H           -5.57835925863770        3.98707718915345        3.51217106172652
H           -7.00098836742037        3.28548850666383        2.74288456787529
H           -7.07462419480111        3.79337504187223        4.42847519032424
H           -3.32003293676024        1.09312731417903        4.23602983093438
H           -2.00538731496531        0.06335106034816        2.47772600439130
H           -2.00537844784414       -2.87535709191683        0.21868931374659
H           -0.47550774936333       -4.73328899776003        0.21247099627080
H            1.09768690148256       -5.89406371439378        1.41312737695796
H            2.78961304166477       -6.37183559377340        1.27654489085319
H            2.35431901244132       -4.88089625375785        2.12107420325851
H            1.91818403317497       -5.07594027921475       -2.15306322879154
H            0.83611435437578       -6.00575375392723       -1.11880214502223
H            2.52366347607367       -6.48860667401323       -1.28071318312330
H            4.32817137445930       -5.22698326212095       -0.24227318052216
H            3.85799137997178       -3.78323101081140       -1.13465921544142
H            4.04634723034207       -3.72022669223542        0.62560062346797
H            2.81567894724775       -2.03783665103530       -0.11105276141339
H            5.32124727349138       -0.38019711450579       -0.13836552386565
H            6.64844202199377       -1.29823285743583        1.66141693391684
