  140
       -177.50762599
 C          5.8287676591       -1.4383218003        5.3000221790
 C          5.7765652626       -2.2455589742        3.9955960799
 C          7.2127660502       -2.5742259995        3.5797180076
 C          5.0334439416       -3.5682762351        4.2320833291
 C          5.0292535269       -1.4493202937        2.9389110094
 C          3.7127481349       -1.0571727457        3.1725755576
 C          2.9811275946       -0.3668921832        2.2308915506
 C          3.5391396023       -0.0475687438        0.9924187433
 N          2.7603350759        0.5639473014        0.0137003803
 C          3.3197628710        1.3765707163       -0.9684809367
 C          2.7708036437        1.4154599693       -2.2478511904
 C          3.3095137606        2.2304583909       -3.2246151736
 C          4.4162643204        3.0324096361       -2.9740925352
 C          5.0477533388        3.9331714274       -4.0227842086
 C          6.5156410546        3.5269524345       -4.2164353533
 C          4.9716256365        5.3896215131       -3.5434784125
 C          4.3450107382        3.8393605756       -5.3797047138
 C          4.9525543671        2.9930749166       -1.6883625885
 C          4.4205553805        2.1917806902       -0.7014118652
 C          1.3789157280        0.2861772939       -0.0303892265
 C          0.4535106237        1.3432821598       -0.0121877793
 C          0.8428073261        2.6994555487        0.1212221488
 C         -0.0731087675        3.7048111553        0.1340044703
 C         -1.4532119605        3.4486769502       -0.0520925191
 C         -2.4359154179        4.6061539162       -0.0361492669
 C         -2.0458524508        5.6360295578       -1.1039212509
 C         -2.3876239636        5.2493473676        1.3573029356
 C         -3.8765111778        4.1578159333       -0.2977701380
 C         -1.8480373614        2.1497337325       -0.1882187378
 C         -0.9421930832        1.0636426317       -0.0962100411
 C         -1.3906766145       -0.2690628196       -0.0403265631
 N         -2.7730882145       -0.5415409498       -0.0025202964
 C         -3.3233893488       -1.4051520734       -0.9447143843
 C         -4.4311487308       -2.1983425691       -0.6512228526
 C         -4.9479965772       -3.0664779203       -1.5934011480
 C         -4.3821945210       -3.1918792033       -2.8566873437
 C         -4.9113267531       -4.1466806355       -3.9142318340
 C         -6.1389126818       -4.9298535232       -3.4413111398
 C         -5.3075076806       -3.3465661307       -5.1631211225
 C         -3.8092736883       -5.1540423887       -4.2718837418
 C         -3.2710586644       -2.3995244056       -3.1372661757
 C         -2.7509118632       -1.5212211981       -2.2115114339
 C         -3.5565416225        0.1028368830        0.9519526750
 C         -4.8745303314        0.4799996116        0.6889285288
 C         -5.5949646322        1.1969248960        1.6199915745
 C         -5.0475026599        1.5742794329        2.8448446013
 C         -5.8731615815        2.4089622637        3.8094684378
 C         -7.1580136106        1.6495868917        4.1677778545
 C         -5.1248009238        2.7200079845        5.1081131746
 C         -6.2278414423        3.7405950224        3.1317370043
 C         -3.7429304510        1.1735915279        3.1066571429
 C         -3.0111547197        0.4486592497        2.1865392813
 C         -0.4656041834       -1.3250820688        0.0215449711
 C         -0.8560613359       -2.6774218085        0.1871002733
 C          0.0591475383       -3.6822810566        0.2316543271
 C          1.4414210053       -3.4307315344        0.0564810100
 C          2.4205322838       -4.5900962827        0.1022878849
 C          2.3235196952       -5.2459385620        1.4871900350
 C          2.0643755721       -5.6090503238       -0.9877470377
 C          3.8697274508       -4.1411050570       -0.1048262778
 C          1.8385567587       -2.1353982579       -0.1037315540
 C          0.9312533792       -1.0476704574       -0.0526825516
 C          4.8628586842       -0.4161213938        0.7571381094
 C          5.5872594441       -1.0988590814        1.7151902660
 H          6.3753827486       -1.9903332343        6.0616239395
 H          4.8316036298       -1.2332977594        5.6788915545
 H          6.3323010849       -0.4883214400        5.1335288984
 H          7.2293890730       -3.1805795552        2.6771207366
 H          7.7877960668       -1.6668305997        3.4111187912
 H          7.6992121007       -3.1387419669        4.3724875416
 H          5.5481877276       -4.1596089782        4.9862739064
 H          4.9924338678       -4.1445074324        3.3102205810
 H          4.0162536118       -3.3930832310        4.5713140250
 H          3.2365967542       -1.2969938324        4.1111619217
 H          1.9602465955       -0.0844158552        2.4396343624
 H          1.9130103784        0.7995684342       -2.4736464413
 H          2.8481323378        2.2206244430       -4.1982383764
 H          6.5786835230        2.4888381669       -4.5364740779
 H          6.9812755728        4.1514040579       -4.9758549442
 H          7.0807254212        3.6338267944       -3.2949349736
 H          5.5107605889        5.5271280210       -2.6104548419
 H          3.9345447641        5.6775462155       -3.3834645242
 H          5.4042582121        6.0536485669       -4.2888290327
 H          4.8402452716        4.4972664065       -6.0909504394
 H          4.3878616648        2.8259990634       -5.7723092778
 H          3.3053072351        4.1487460983       -5.3034884569
 H          5.8025793061        3.6098035792       -1.4384991600
 H          4.8477010481        2.2032264739        0.2907399283
 H          1.8883313746        2.9320648189        0.2414468189
 H          0.2683987337        4.7186943079        0.2765260312
 H         -1.0539915449        6.0408948693       -0.9236058166
 H         -2.7546251909        6.4614862641       -1.1040626452
 H         -2.0525871159        5.1750741357       -2.0896883204
 H         -1.3957700568        5.6308745801        1.5833106154
 H         -2.6509578736        4.5114958792        2.1126414549
 H         -3.0935754040        6.0751642802        1.4152479185
 H         -3.9687187296        3.6937760171       -1.2769305715
 H         -4.5351951909        5.0236819027       -0.2726277856
 H         -4.2084605943        3.4567534763        0.4628171912
 H         -2.8822278924        1.9190207387       -0.3602400977
 H         -4.8792960608       -2.1461769731        0.3303127553
 H         -5.8025667700       -3.6601409491       -1.3131763108
 H         -5.9018506238       -5.5419459868       -2.5742456340
 H         -6.9578079300       -4.2591181894       -3.1918334964
 H         -6.4760243994       -5.5909988587       -4.2370639404
 H         -4.4553107334       -2.8182481162       -5.5811530828
 H         -5.7030257984       -4.0133845019       -5.9263357429
 H         -6.0730075846       -2.6148583260       -4.9130596644
 H         -3.5118037436       -5.7143244637       -3.3877512615
 H         -4.1696616976       -5.8556206802       -5.0212769461
 H         -2.9302036543       -4.6532310800       -4.6676530463
 H         -2.7964795367       -2.4583341305       -4.1049326481
 H         -1.8908868681       -0.9176255020       -2.4607331204
 H         -5.3210540689        0.2361479370       -0.2636797259
 H         -6.6051154498        1.4829964552        1.3690954909
 H         -7.7645932663        1.4597931685        3.2869338473
 H         -7.7521186448        2.2281965696        4.8718464419
 H         -6.9133877402        0.6935842905        4.6260725988
 H         -4.8630026519        1.8061657673        5.6362701124
 H         -5.7610900648        3.3153667226        5.7597155359
 H         -4.2196567313        3.2896628247        4.9108085425
 H         -5.3208204259        4.2805298817        2.8689055751
 H         -6.8039488946        3.5803558042        2.2248484518
 H         -6.8159130210        4.3601215458        3.8053703866
 H         -3.2690759798        1.4245006521        4.0412327179
 H         -1.9967382980        0.1586460162        2.4155374096
 H         -1.9025714856       -2.9081992926        0.3012609960
 H         -0.2847888616       -4.6930889157        0.3897818556
 H          1.3280960834       -5.6399432843        1.6710891565
 H          3.0342380672       -6.0658883910        1.5656096744
 H          2.5509623385       -4.5136550972        2.2587954405
 H          2.1170264226       -5.1423191829       -1.9693330390
 H          1.0605078402       -6.0014259090       -0.8509841445
 H          2.7624543451       -6.4431744115       -0.9640678025
 H          4.5271797291       -5.0068010498       -0.0513549526
 H          4.0010555070       -3.6804955216       -1.0812010384
 H          4.1701510159       -3.4359639609        0.6656637179
 H          2.8754015301       -1.9081219997       -0.2646057470
 H          5.3181006015       -0.1950965239       -0.1968753670
 H          6.6018247794       -1.3721036799        1.4762595522
