  69
       -112.96123103
 C          6.5288987890       -0.9229736640        1.6860955335
 C          6.1412079920       -0.4828885583        0.2724401770
 C          6.4459162469       -1.5891062117       -0.7443055730
 C          6.9117606134        0.7829650949       -0.1016346232
 N          4.7088650400       -0.1906969123        0.2397515577
 C          3.7499768847       -1.1490761664        0.5682056286
 O          4.0224635412       -2.2700950891        1.0124475999
 C          2.4388150137       -0.6543726178        0.2984559447
 C          1.2259394526       -1.3077618967        0.5732045705
 C          0.0376469558       -0.6712451238        0.3171151751
 N         -1.1766800655       -1.2540178152        0.6846091287
 C         -1.6358776648       -2.4823237116        0.2616573243
 C         -0.9753188743       -3.4703806883       -0.4588993436
 C         -1.6923491230       -4.5971328926       -0.8128829213
 C         -3.0342914048       -4.7420514062       -0.4653122916
 C         -3.7022889099       -3.7543845569        0.2378324287
 C         -3.0044232068       -2.6151529401        0.6046361477
 C         -3.3708485756       -1.4081131091        1.2973269322
 C         -4.5451186250       -0.9524441418        1.8745624202
 C         -4.5367395895        0.2793926272        2.5074092487
 C         -3.3701412490        1.0324430046        2.6001015460
 C         -2.1866458816        0.5957648248        2.0329945901
 C         -2.2070379489       -0.6066973516        1.3403642540
 C          0.0150694217        0.6441626160       -0.2965068724
 N         -1.1984282961        1.2165768647       -0.6620485694
 C         -2.2290742779        0.5594165715       -1.3080133666
 C         -2.2036611823       -0.6455502579       -1.9968392411
 C         -3.3879844962       -1.0977538123       -2.5493185124
 C         -4.5629723566       -0.3578125299       -2.4428878243
 C         -4.5772072523        0.8781042307       -1.8179546910
 C         -3.4008495285        1.3522063335       -1.2595378786
 C         -3.0360782890        2.5690638297       -0.5867747191
 C         -3.7350706891        3.7118617786       -0.2324494954
 C         -3.0670697152        4.7112078984        0.4539091322
 C         -1.7225005662        4.5755003894        0.7989460249
 C         -1.0035321338        3.4465214150        0.4566281622
 C         -1.6631722935        2.4467744616       -0.2492124172
 C          1.2307607569        1.2930323130       -0.5645096682
 C          2.3967925879        0.6489046499       -0.2902574073
 S          4.0623389554        1.1558938147       -0.5598011999
 O          4.3746728654        2.3624369146        0.1576465261
 O          4.4173303683        1.1426595835       -1.9551805450
 H          5.9726537021       -1.8159399128        1.9574148493
 H          6.2981334145       -0.1345892022        2.3984595012
 H          7.5929002629       -1.1390726772        1.7254586413
 H          7.5118578724       -1.7988534599       -0.7603922267
 H          5.9087915153       -2.4926516094       -0.4685765669
 H          6.1286864117       -1.2725596128       -1.7353485617
 H          6.6618032313        1.5920231137        0.5788812207
 H          6.6589168489        1.0947632944       -1.1106322192
 H          7.9793858546        0.5840749801       -0.0467126187
 H          1.2503072886       -2.2727424063        1.0542650325
 H          0.0614587390       -3.3600147718       -0.7365818141
 H         -1.2024974401       -5.3808518444       -1.3702151983
 H         -3.5597236928       -5.6388278281       -0.7563854149
 H         -4.7454790046       -3.8630605095        0.4910398987
 H         -5.4437757770       -1.5481826177        1.8336308302
 H         -5.4436739330        0.6552099570        2.9555635757
 H         -3.3841022706        1.9733489854        3.1285029978
 H         -1.2751844154        1.1638794518        2.1370046541
 H         -1.2860223631       -1.2015252544       -2.1119961503
 H         -3.3971499318       -2.0391013000       -3.0768950314
 H         -5.4712660896       -0.7466928555       -2.8768550628
 H         -5.4822224232        1.4636797080       -1.7698559316
 H         -4.7799274780        3.8140197936       -0.4818545295
 H         -3.5943616076        5.6098850700        0.7357489051
 H         -1.2337460861        5.3673526605        1.3454790344
 H          0.0342112926        3.3430856910        0.7342188653
 H          1.2369581408        2.2634451416       -1.0349991545
