  69
       -112.96123103
 C          6.5288987890       -0.9229736640        1.6860955335
 C          6.1412079920       -0.4828885583        0.2724401770
 C          6.4459162469       -1.5891062117       -0.7443055730
 C          6.9117606134        0.7829650949       -0.1016346232
 N          4.7088650400       -0.1906969123        0.2397515577
 C          3.7499768847       -1.1490761664        0.5682056286
 O          4.0224635412       -2.2700950891        1.0124475999
 C          2.4388150137       -0.6543726178        0.2984559447
 C          1.2259394526       -1.3077618967        0.5732045705
 C          0.0376469558       -0.6712451238        0.3171151751
 N         -1.1766800655       -1.2540178152        0.6846091287
 C         -1.6358776648       -2.4823237116        0.2616573243
 C         -0.9753188743       -3.4703806883       -0.4588993436
 C         -1.6923491230       -4.5971328926       -0.8128829213
 C         -3.0342914048       -4.7420514062       -0.4653122916
 C         -3.7022889099       -3.7543845569        0.2378324287
 C         -3.0044232068       -2.6151529401        0.6046361477
 C         -3.3708485756       -1.4081131091        1.2973269322
 C         -4.5451186250       -0.9524441418        1.8745624202
 C         -4.5367395895        0.2793926272        2.5074092487
 C         -3.3701412490        1.0324430046        2.6001015460
 C         -2.1866458816        0.5957648248        2.0329945901
 C         -2.2070379489       -0.6066973516        1.3403642540
 C          0.0150694217        0.6441626160       -0.2965068724
 N         -1.1984282961        1.2165768647       -0.6620485694
 C         -2.2290742779        0.5594165715       -1.3080133666
 C         -2.2036611823       -0.6455502579       -1.9968392411
 C         -3.3879844962       -1.0977538123       -2.5493185124
 C         -4.5629723566       -0.3578125299       -2.4428878243
 C         -4.5772072523        0.8781042307       -1.8179546910
 C         -3.4008495285        1.3522063335       -1.2595378786
 C         -3.0360782890        2.5690638297       -0.5867747191
 C         -3.7350706891        3.7118617786       -0.2324494954
 C         -3.0670697152        4.7112078984        0.4539091322
 C         -1.7225005662        4.5755003894        0.7989460249
 C         -1.0035321338        3.4465214150        0.4566281622
 C         -1.6631722935        2.4467744616       -0.2492124172
 C          1.2307607569        1.2930323130       -0.5645096682
 C          2.3967925879        0.6489046499       -0.2902574073
 S          4.0623389554        1.1558938147       -0.5598011999
 O          4.3746728654        2.3624369146        0.1576465261
 O          4.4173303683        1.1426595835       -1.9551805450
 H          5.9726537021       -1.8159399128        1.9574148493
 H          6.2981334145       -0.1345892022        2.3984595012
 H          7.5929002629       -1.1390726772        1.7254586413
 H          7.5118578724       -1.7988534599       -0.7603922267
 H          5.9087915153       -2.4926516094       -0.4685765669
 H          6.1286864117       -1.2725596128       -1.7353485617
 H          6.6618032313        1.5920231137        0.5788812207
 H          6.6589168489        1.0947632944       -1.1106322192
 H          7.9793858546        0.5840749801       -0.0467126187
 H          1.2503072886       -2.2727424063        1.0542650325
 H          0.0614587390       -3.3600147718       -0.7365818141
 H         -1.2024974401       -5.3808518444       -1.3702151983
 H         -3.5597236928       -5.6388278281       -0.7563854149
 H         -4.7454790046       -3.8630605095        0.4910398987
 H         -5.4437757770       -1.5481826177        1.8336308302
 H         -5.4436739330        0.6552099570        2.9555635757
 H         -3.3841022706        1.9733489854        3.1285029978
 H         -1.2751844154        1.1638794518        2.1370046541
 H         -1.2860223631       -1.2015252544       -2.1119961503
 H         -3.3971499318       -2.0391013000       -3.0768950314
 H         -5.4712660896       -0.7466928555       -2.8768550628
 H         -5.4822224232        1.4636797080       -1.7698559316
 H         -4.7799274780        3.8140197936       -0.4818545295
 H         -3.5943616076        5.6098850700        0.7357489051
 H         -1.2337460861        5.3673526605        1.3454790344
 H          0.0342112926        3.3430856910        0.7342188653
 H          1.2369581408        2.2634451416       -1.0349991545
  69
       -112.96110731
 C          6.5757602196       -1.0599382037        1.5603927778
 C          6.1483934024       -0.5219147841        0.1929764911
 C          6.4032583291       -1.5616850492       -0.9045818353
 C          6.9248269503        0.7567533421       -0.1204100111
 N          4.7200734405       -0.2102270898        0.2250539032
 C          3.7577418412       -1.1715128309        0.5332041121
 O          4.0262857162       -2.3143460913        0.9206031274
 C          2.4463670934       -0.6542956855        0.3107357115
 C          1.2334321958       -1.3110126071        0.5798402868
 C          0.0472592973       -0.6640794594        0.3437600451
 N         -1.1730726058       -1.2322109470        0.7148592057
 C         -1.6665243874       -2.4431298865        0.2825854976
 C         -1.0343475927       -3.4446122422       -0.4451589714
 C         -1.7839173272       -4.5465200746       -0.8095411012
 C         -3.1300174509       -4.6548598364       -0.4645388988
 C         -3.7689029560       -3.6551487410        0.2486644872
 C         -3.0380684799       -2.5408621423        0.6270006472
 C         -3.3694441886       -1.3314855076        1.3332621716
 C         -4.5279865440       -0.8497199634        1.9214264715
 C         -4.4823201166        0.3741572362        2.5681487317
 C         -3.2953619928        1.0941560923        2.6623510030
 C         -2.1272529508        0.6312528315        2.0837784877
 C         -2.1841421619       -0.5635127779        1.3804320314
 C          0.0260679874        0.6613673815       -0.2491887806
 N         -1.1894251084        1.2087672085       -0.6464165475
 C         -2.1725003717        0.5242165219       -1.3374298951
 C         -2.0778224647       -0.6717073721       -2.0353460202
 C         -3.2220004729       -1.1557445317       -2.6432812657
 C         -4.4239999208       -0.4557025278       -2.5794321316
 C         -4.5066338709        0.7701136489       -1.9397821106
 C         -3.3714360976        1.2757075902       -1.3259044292
 C         -3.0745253591        2.4951251042       -0.6246638910
 C         -3.8264398763        3.6065447624       -0.2796836096
 C         -3.2194990842        4.6187917051        0.4434554582
 C         -1.8829372050        4.5276114329        0.8319295041
 C         -1.1116615104        3.4307924949        0.4997173503
 C         -1.7107710628        2.4163916472       -0.2385538237
 C          1.2402086121        1.3227585018       -0.4890751184
 C          2.4052944612        0.6709760118       -0.2277358858
 S          4.0709322526        1.1844215777       -0.4845886890
 O          4.4007272292        2.3433792071        0.3004134014
 O          4.4074785788        1.2541580921       -1.8827601865
 H          6.0109960875       -1.9583055390        1.7935396703
 H          6.3865882876       -0.3155349035        2.3301174222
 H          7.6359342465       -1.2977214545        1.5464392896
 H          7.4649875230       -1.7822940223       -0.9728060169
 H          5.8636334359       -2.4755049872       -0.6707256455
 H          6.0559708432       -1.1758522431       -1.8605153620
 H          6.7004077470        1.5237884339        0.6149612877
 H          6.6525129784        1.1334801634       -1.1013127486
 H          7.9908663512        0.5438334015       -0.1034238936
 H          1.2585771692       -2.2869880837        1.0380904874
 H          0.0059314732       -3.3631942405       -0.7196060684
 H         -1.3167992735       -5.3398669997       -1.3727765856
 H         -3.6817548725       -5.5325963180       -0.7650246503
 H         -4.8147984292       -3.7357608379        0.5012231012
 H         -5.4431017440       -1.4196863438        1.8786253750
 H         -5.3760015230        0.7693280047        3.0261352332
 H         -3.2809740688        2.0296183936        3.2002808830
 H         -1.1994558632        1.1724394777        2.1875332794
 H         -1.1375668445       -1.1949737410       -2.1164140476
 H         -3.1775420028       -2.0904539137       -3.1807638931
 H         -5.2994611299       -0.8683826837       -3.0568224739
 H         -5.4324351644        1.3240552922       -1.9230188715
 H         -4.8649276690        3.6748684463       -0.5644241707
 H         -3.7890538625        5.4931933916        0.7192431576
 H         -1.4425787663        5.3296554482        1.4041974977
 H         -0.0797499039        3.3618398393        0.8081341536
 H          1.2476285468        2.3070235796       -0.9300316472
  69
       -112.96087137
 C          6.4355905027       -1.9581637446        0.3694952388
 C          6.1316881639       -0.4581475237        0.3278951985
 C          6.8879966246        0.1924285334       -0.8296548026
 C          6.5376548197        0.2137761721        1.6448254237
 N          4.6961631741       -0.2742985879        0.1197932554
 C          3.7478460040       -0.7627535059        1.0181146214
 O          4.0315167250       -1.4279064892        2.0203905364
 C          2.4347101757       -0.3735899067        0.6146199465
 C          1.2248251201       -0.7352626100        1.2294295327
 C          0.0306280267       -0.3740055229        0.6561429289
 N         -1.1762988519       -0.8035424339        1.2121424974
 C         -2.2380896799       -1.3456080713        0.5137572910
 C         -2.2659596663       -1.8771810000       -0.7683656798
 C         -3.4769667260       -2.3437439246       -1.2458733116
 C         -4.6246492518       -2.3127638769       -0.4588819772
 C         -4.5852085128       -1.8507848736        0.8460485653
 C         -3.3823959078       -1.3773772441        1.3443257098
 C         -2.9690292308       -0.8594425666        2.6216197095
 C         -3.6298198937       -0.6299877618        3.8176982040
 C         -2.9201578494       -0.0792910936        4.8708774236
 C         -1.5737140696        0.2541047917        4.7361835199
 C         -0.8934954261        0.0359962703        3.5531492275
 C         -1.5954898396       -0.5344822183        2.4983095280
 C          0.0012984149        0.4260316332       -0.5547007888
 N         -1.2079583665        0.8279617810       -1.1106870273
 C         -1.6041916979        0.5639166237       -2.4061841148
 C         -0.8763128963        0.0146769706       -3.4553267909
 C         -1.5319707752       -0.1983229571       -4.6530173163
 C         -2.8809629819        0.1192746712       -4.8073955660
 C         -3.6178387398        0.6435092159       -3.7592309643
 C         -2.9828649836        0.8656938479       -2.5475278897
 C         -3.4262414700        1.3540318717       -1.2704150307
 C         -4.6473103633        1.7884321788       -0.7811146138
 C         -4.7151110452        2.2362334874        0.5277052879
 C         -3.5770682132        2.2941747100        1.3286962359
 C         -2.3491181778        1.8625758810        0.8624177180
 C         -2.2907284618        1.3414792849       -0.4235394990
 C          1.2155440990        0.8015428452       -1.1518207902
 C          2.3854175672        0.4339012499       -0.5650800796
 S          4.0461146497        0.7627987293       -1.0493477140
 O          4.4336950976        2.1253073956       -0.7938622509
 O          4.3184151087        0.2676396441       -2.3721130562
 H          6.1359912752       -2.4240619251       -0.5664767582
 H          5.8870873606       -2.4203208912        1.1856188572
 H          7.4998236983       -2.1157782674        0.5214026141
 H          7.9561592086        0.0446847926       -0.6904537384
 H          6.5851517128       -0.2487635910       -1.7745668783
 H          6.6771948251        1.2569908276       -0.8666903559
 H          6.0110632528       -0.2580471484        2.4698496666
 H          6.2799183333        1.2700604414        1.6135661388
 H          7.6083519063        0.1123952314        1.7994126114
 H          1.2524893966       -1.3614693295        2.1071899451
 H         -1.3712457461       -1.9324139366       -1.3691077954
 H         -3.5283483653       -2.7432809472       -2.2471198817
 H         -5.5546853202       -2.6758184211       -0.8685019615
 H         -5.4692434264       -1.8607587895        1.4645225737
 H         -4.6765966830       -0.8706616209        3.9200638060
 H         -3.4159966720        0.1027367863        5.8121280552
 H         -1.0507830896        0.6926241463        5.5722272391
 H          0.1465615431        0.3044445263        3.4513703010
 H          0.1647464157       -0.2447335467       -3.3393302510
 H         -0.9884700618       -0.6212756672       -5.4838360877
 H         -3.3574793147       -0.0577866803       -5.7595685498
 H         -4.6665325433        0.8683033636       -3.8773964795
 H         -5.5240270746        1.7805466401       -1.4100051399
 H         -5.6597300741        2.5694655904        0.9292073269
 H         -3.6509482187        2.6869579575        2.3311313312
 H         -1.4628980061        1.9401655979        1.4731242014
 H          1.2159018927        1.4224727799       -2.0335373898
  69
       -112.96078763
 C          6.8971995459        0.3054164968       -0.7212845685
 C          6.1248926898       -0.4581675874        0.3532876310
 C          6.5420495309        0.0499891004        1.7381920583
 C          6.3965141028       -1.9598505895        0.2246248990
 N          4.6935979968       -0.2234290715        0.1674381798
 C          3.7352651134       -0.7785268708        1.0125619526
 O          4.0067968657       -1.5028662817        1.9766779439
 C          2.4251863178       -0.3787448429        0.6094326265
 C          1.2122783341       -0.7684046650        1.1991327489
 C          0.0211142052       -0.3839251527        0.6346078554
 N         -1.1865248594       -0.8377848742        1.1678295690
 C         -2.2411343030       -1.3674377382        0.4504275894
 C         -2.2678310212       -1.8354853882       -0.8563501980
 C         -3.4704781774       -2.3105977356       -1.3460158762
 C         -4.6105781558       -2.3506333391       -0.5483329655
 C         -4.5707766564       -1.9518285885        0.7773020268
 C         -3.3766865266       -1.4694203841        1.2877800120
 C         -2.9638499784       -1.0087029742        2.5870525465
 C         -3.6163557655       -0.8636268453        3.8008354614
 C         -2.9084036285       -0.3549006690        4.8763262482
 C         -1.5730641692        0.0220422994        4.7464735858
 C         -0.9011153919       -0.1126265502        3.5462269358
 C         -1.5999239011       -0.6441737746        2.4691463071
 C         -0.0014039371        0.4638021139       -0.5433728030
 N         -1.2084631494        0.8882241742       -1.0871114610
 C         -1.5985918922        0.6808146337       -2.3947418059
 C         -0.8684519118        0.1687431515       -3.4610496243
 C         -1.5193630466        0.0057053909       -4.6691830780
 C         -2.8658002475        0.3364537143       -4.8175418005
 C         -3.6047301735        0.8249286040       -3.7535405484
 C         -2.9745493815        0.9965158316       -2.5311975060
 C         -3.4219760625        1.4359031266       -1.2377335674
 C         -4.6420455808        1.8637831695       -0.7399952944
 C         -4.7153189588        2.2573070939        0.5857698813
 C         -3.5834204827        2.2659785235        1.3979368186
 C         -2.3565517180        1.8411494203        0.9230619870
 C         -2.2924668514        1.3777641689       -0.3846603853
 C          1.2163904484        0.8589880846       -1.1205262861
 C          2.3835881390        0.4697142746       -0.5416563240
 S          4.0475524291        0.7993502229       -1.0153566545
 O          4.4283326637        2.1650157858       -0.7699139404
 O          4.3329043839        0.2927515026       -2.3319051949
 H          6.6916659824        1.3692715322       -0.6494243704
 H          6.6033926945       -0.0332313152       -1.7102306750
 H          7.9628775156        0.1372656582       -0.5866171972
 H          7.6073882077       -0.1052977819        1.8844004079
 H          6.3211720473        1.1113172488        1.8253808994
 H          5.9933614089       -0.4922228608        2.5031587377
 H          6.0825200285       -2.3100260736       -0.7561177223
 H          5.8411050379       -2.4983804932        0.9875895393
 H          7.4573433922       -2.1577985599        0.3509156882
 H          1.2353131058       -1.4293977232        2.0510895337
 H         -1.3776647463       -1.8400216130       -1.4660626670
 H         -3.5207306494       -2.6625322012       -2.3650002172
 H         -5.5339909995       -2.7205646440       -0.9666928462
 H         -5.4477285370       -2.0179494867        1.4024239012
 H         -4.6557360296       -1.1358853009        3.9003094260
 H         -3.3981022983       -0.2380369765        5.8311348967
 H         -1.0522292642        0.4283860398        5.5999201188
 H          0.1307392817        0.1876022254        3.4491501599
 H          0.1702216844       -0.1020710698       -3.3499671725
 H         -0.9738966395       -0.3876202286       -5.5131916268
 H         -3.3382662550        0.1999871960       -5.7784224212
 H         -4.6512127534        1.0616498524       -3.8683158239
 H         -5.5138227256        1.8920209022       -1.3752667346
 H         -5.6592486749        2.5847629803        0.9936964974
 H         -3.6615525308        2.6157591013        2.4158557441
 H         -1.4750122932        1.8817883453        1.5441287181
 H          1.2214176748        1.5107122061       -1.9797481908
  69
       -112.96051432
 C          6.8767729907        0.2495630528       -0.7756008762
 C          6.1099047567       -0.4997377776        0.3130301694
 C          6.5550543017        0.0055101135        1.6902979344
 C          6.3582566333       -2.0053958906        0.1836685662
 N          4.6795126056       -0.2445717742        0.1485820913
 C          3.7250296458       -0.7935174221        1.0027246498
 O          3.9998888942       -1.5314091140        1.9553305621
 C          2.4155257056       -0.3710466337        0.6212096221
 C          1.2025610274       -0.7619422975        1.2098772459
 C          0.0103334370       -0.3705539848        0.6514791352
 N         -1.1932782789       -0.8316940909        1.1872719269
 C         -2.2478591445       -1.3709855016        0.4782513753
 C         -2.2861682322       -1.8232856903       -0.8340099349
 C         -3.4857550900       -2.3188284369       -1.3100108391
 C         -4.6123105576       -2.3926767860       -0.4951913261
 C         -4.5609847558       -2.0050284513        0.8331829891
 C         -3.3697665687       -1.5020673125        1.3303233886
 C         -2.9486153534       -1.0443189840        2.6280644681
 C         -3.5886508331       -0.9170586356        3.8505055510
 C         -2.8766566652       -0.4012271297        4.9200847463
 C         -1.5499314024       -0.0005282301        4.7760908471
 C         -0.8903464147       -0.1177358726        3.5669596433
 C         -1.5930896077       -0.6556831225        2.4958145630
 C         -0.0135848341        0.4884478666       -0.5181295173
 N         -1.2159761244        0.9025739885       -1.0780924563
 C         -1.5643711222        0.7231026374       -2.4028540161
 C         -0.7993496244        0.2408093711       -3.4583913249
 C         -1.4089423917        0.1151151832       -4.6926291121
 C         -2.7495633281        0.4502731335       -4.8765392644
 C         -3.5252232412        0.9023827614       -3.8224869259
 C         -2.9363299708        1.0371746805       -2.5751230188
 C         -3.4268335822        1.4409889246       -1.2857731754
 C         -4.6652331736        1.8488194478       -0.8175571551
 C         -4.7835573442        2.2113520900        0.5136121663
 C         -3.6769019875        2.2120496954        1.3603537756
 C         -2.4325642410        1.8075269531        0.9150538987
 C         -2.3235887210        1.3705024791       -0.3991020233
 C          1.2055286309        0.8968667214       -1.0849796768
 C          2.3727611406        0.5001578061       -0.5125123260
 S          4.0353205792        0.8224349864       -0.9951434220
 O          4.4421606222        2.1740667955       -0.7157609723
 O          4.2932174974        0.3507459936       -2.3301665986
 H          6.6919664571        1.3170236727       -0.7003292946
 H          6.5588868001       -0.0836688661       -1.7590060738
 H          7.9415927277        0.0621949061       -0.6603813386
 H          7.6208151681       -0.1617342559        1.8200243576
 H          6.3476672285        1.0696098491        1.7785936907
 H          6.0122136334       -0.5290963422        2.4649071665
 H          6.0228367857       -2.3536364388       -0.7906981557
 H          5.8083982881       -2.5346468934        0.9571298357
 H          7.4183076061       -2.2175949787        0.2923800127
 H          1.2247840345       -1.4329887787        2.0540183003
 H         -1.4067662092       -1.8012013712       -1.4587750258
 H         -3.5444316916       -2.6616889036       -2.3316372828
 H         -5.5335074385       -2.7797903885       -0.9028649068
 H         -5.4265574705       -2.0960715915        1.4709440429
 H         -4.6221038283       -1.2069799740        3.9610121524
 H         -3.3568539431       -0.2971885049        5.8811744646
 H         -1.0257266492        0.4105748711        5.6251613418
 H          0.1349341640        0.2008066532        3.4588228488
 H          0.2349380774       -0.0349517086       -3.3220820248
 H         -0.8344560581       -0.2528711292       -5.5287484712
 H         -3.1891561195        0.3434931586       -5.8565533215
 H         -4.5681795406        1.1398943283       -3.9645344738
 H         -5.5166003353        1.8851323050       -1.4795358744
 H         -5.7426899439        2.5214042595        0.8990547262
 H         -3.7893010896        2.5398165417        2.3823651801
 H         -1.5716201814        1.8441679414        1.5643667344
 H          1.2107742389        1.5641206255       -1.9320707040
  69
       -112.96042701
 C          6.4442272880       -0.6230465390        1.8518844739
 C          6.1099682462       -0.4012651289        0.3743734283
 C          6.4838266425       -1.6336153040       -0.4576681702
 C          6.8678403913        0.8175551953       -0.1505581984
 N          4.6740463524       -0.1573064052        0.2469956387
 C          3.7246547606       -1.0990529173        0.6448360643
 O          4.0079240165       -2.1660969075        1.2002214524
 C          2.4116623224       -0.6529154804        0.3063287524
 C          1.2008507494       -1.3035071726        0.5930763498
 C          0.0052241300       -0.6958453397        0.2958463294
 N         -1.1933881267       -1.3196254765        0.6465548717
 C         -1.5678970468       -2.5840123902        0.2383227754
 C         -0.8404359859       -3.5330608397       -0.4690011404
 C         -1.4785909241       -4.7109870527       -0.8102402324
 C         -2.8085206387       -4.9414250388       -0.4649841354
 C         -3.5446218297       -3.9903394848        0.2209992137
 C         -2.9259125602       -2.8019457308        0.5749700688
 C         -3.3755071854       -1.6110969771        1.2463551610
 C         -4.5822624070       -1.2278792417        1.8082782006
 C         -4.6631194765        0.0117963751        2.4196042418
 C         -3.5511410511        0.8455821226        2.5052027210
 C         -2.3369935677        0.4827354296        1.9532067977
 C         -2.2675882666       -0.7316345654        1.2831028061
 C         -0.0247525695        0.5995816865       -0.3572857781
 N         -1.2249655746        1.2274883576       -0.6661926385
 C         -2.3420353225        0.6486069217       -1.2342481454
 C         -2.4703536835       -0.5749161589       -1.8800587287
 C         -3.7213291196       -0.9316010928       -2.3465372974
 C         -4.8162258399       -0.0815361983       -2.2033460194
 C         -4.6779363355        1.1721640606       -1.6319656404
 C         -3.4323729217        1.5511979443       -1.1588900994
 C         -2.9218159083        2.7538131070       -0.5597978287
 C         -3.4897217402        3.9763956571       -0.2377379325
 C         -2.6960346557        4.9382445194        0.3639103785
 C         -1.3593244595        4.6829691177        0.6653781529
 C         -0.7712070600        3.4706915013        0.3559909662
 C         -1.5531053636        2.5133977913       -0.2794462462
 C          1.1929241688        1.2240827704       -0.6791905757
 C          2.3624534079        0.6018263149       -0.3777775589
 S          4.0233895589        1.1075103959       -0.6712973763
 O          4.3060067592        2.3749790827       -0.0528154295
 O          4.3996203696        0.9829653856       -2.0551988740
 H          5.8954074472       -1.4825661652        2.2267108305
 H          6.1659423422        0.2539376728        2.4317710079
 H          7.5096320919       -0.8027608691        1.9665742208
 H          7.5544898559       -1.8101139619       -0.4018105901
 H          5.9577458326       -2.5033221608       -0.0734701593
 H          6.2016152708       -1.4747712319       -1.4961506411
 H          6.5803832743        1.7077112564        0.4011574098
 H          6.6422244444        0.9786611155       -1.2003893166
 H          7.9366309604        0.6538977554       -0.0363702086
 H          1.2267974831       -2.2474066705        1.1143002778
 H          0.1867030767       -3.3559252713       -0.7480218603
 H         -0.9346021224       -5.4661247842       -1.3566583115
 H         -3.2712710823       -5.8753008436       -0.7456563900
 H         -4.5799790239       -4.1645522239        0.4698920216
 H         -5.4370791811       -1.8853498428        1.7728306087
 H         -5.5968578510        0.3314507561        2.8561953127
 H         -3.6341160086        1.7917797586        3.0175752852
 H         -1.4703559641        1.1182862900        2.0497218742
 H         -1.6188130185       -1.2209262149       -2.0267097088
 H         -3.8483854170       -1.8847172564       -2.8364433858
 H         -5.7813367522       -0.3985432408       -2.5675841679
 H         -5.5195049798        1.8435509531       -1.5588935431
 H         -4.5296992294        4.1703068879       -0.4502151774
 H         -3.1178430091        5.8996537691        0.6144168138
 H         -0.7700409202        5.4450021539        1.1517786981
 H          0.2600930365        3.2773201977        0.6074856307
 H          1.1935458079        2.1627000810       -1.2099545070
  69
       -112.96033463
 C          6.3801459966       -0.4448946471        1.9106224420
 C          6.1217393080       -0.3781575334        0.4025941228
 C          6.5651224923       -1.6770394486       -0.2802756904
 C          6.8823185736        0.7998881716       -0.2042715138
 N          4.6893120309       -0.1846391123        0.1808604790
 C          3.7393003685       -1.1078739271        0.6133029007
 O          4.0205323388       -2.1549084381        1.2065272285
 C          2.4256725498       -0.6706293643        0.2625101978
 C          1.2158298023       -1.3140442873        0.5674260950
 C          0.0196663284       -0.7081655308        0.2691799377
 N         -1.1818236459       -1.3184314495        0.6358080714
 C         -1.5818822344       -2.5745464889        0.2268600765
 C         -0.8653846734       -3.5483320849       -0.4575447498
 C         -1.5263814294       -4.7132592486       -0.7995506739
 C         -2.8683280937       -4.9067143425       -0.4780759338
 C         -3.5933368965       -3.9308263712        0.1842575009
 C         -2.9516509165       -2.7551194545        0.5395888958
 C         -3.3831624825       -1.5489338316        1.1948720966
 C         -4.5931124505       -1.1232441027        1.7178207648
 C         -4.6519833903        0.1226362790        2.3195156566
 C         -3.5154876185        0.9176567193        2.4403187270
 C         -2.2978489646        0.5123973790        1.9261523145
 C         -2.2511996809       -0.7020848649        1.2545400532
 C         -0.0105710331        0.5791265425       -0.4010880204
 N         -1.2143802545        1.2076289563       -0.6988566275
 C         -2.3401732923        0.6217838690       -1.2422514058
 C         -2.4713550152       -0.5956000600       -1.8987965782
 C         -3.7330127572       -0.9673157926       -2.3241494752
 C         -4.8356860251       -0.1384004082       -2.1284176160
 C         -4.6977009800        1.1096824383       -1.5442051520
 C         -3.4418333399        1.5043705897       -1.1135741982
 C         -2.9319837518        2.7014999147       -0.5029599309
 C         -3.5117260546        3.9005825431       -0.1192917060
 C         -2.7173853927        4.8551953112        0.4926972568
 C         -1.3661026742        4.6177052637        0.7396658546
 C         -0.7653406992        3.4300272900        0.3666848577
 C         -1.5507866599        2.4786817125       -0.2732722817
 C          1.2049357094        1.2019693634       -0.7292455739
 C          2.3758020660        0.5791087551       -0.4312282023
 S          4.0346942652        1.1074065464       -0.6925984424
 O          4.2986730771        2.3553069128       -0.0255697832
 O          4.4271270230        1.0384456550       -2.0752739041
 H          5.8341585817       -1.2810902735        2.3387475619
 H          6.0469422415        0.4758392662        2.3842771320
 H          7.4416165692       -0.5789999055        2.0999229988
 H          7.6321509632       -1.8247820982       -0.1380629433
 H          6.0270048910       -2.5158244861        0.1524237686
 H          6.3509653870       -1.6268615697       -1.3454685219
 H          6.5693711905        1.7307246758        0.2590211219
 H          6.6866369576        0.8663124767       -1.2703283424
 H          7.9487774847        0.6608760434       -0.0446542135
 H          1.2436018856       -2.2499060898        1.1030114210
 H          0.1712156557       -3.3998616019       -0.7174242254
 H         -0.9912436304       -5.4877556979       -1.3272833315
 H         -3.3490845764       -5.8314521895       -0.7587943105
 H         -4.6372973134       -4.0764574963        0.4148345351
 H         -5.4679045372       -1.7520023282        1.6584672934
 H         -5.5881635632        0.4764744605        2.7231331091
 H         -3.5814048243        1.8671758978        2.9489587396
 H         -1.4124539075        1.1169272664        2.0484367696
 H         -1.6150768261       -1.2269548232       -2.0796661082
 H         -3.8626665150       -1.9167882362       -2.8204240571
 H         -5.8084892192       -0.4677954175       -2.4597165689
 H         -5.5476758527        1.7641365113       -1.4277449930
 H         -4.5619593680        4.0804008317       -0.2893615941
 H         -3.1497336772        5.7970317542        0.7943643834
 H         -0.7760111058        5.3735843022        1.2345667015
 H          0.2774249494        3.2482826093        0.5761313832
 H          1.2041877561        2.1402524382       -1.2608361880
  69
       -112.96012162
 C          6.3577941617       -1.9437226937        0.0764647596
 C          6.1073406249       -0.4541597124        0.3301052966
 C          6.8777283472        0.3865449982       -0.6867983858
 C          6.5466082833       -0.0655174010        1.7462655636
 N          4.6768863067       -0.1891041591        0.1803417266
 C          3.7207256608       -0.7852564280        0.9996283424
 O          3.9952243573       -1.5368366060        1.9415974174
 C          2.4078360790       -0.3898755340        0.6001677866
 C          1.1965825131       -0.7802485120        1.1913778360
 C          0.0003851766       -0.3913291757        0.6382419696
 N         -1.1965655899       -0.8201736792        1.2141758113
 C         -2.2874236966       -1.3497724291        0.5558437342
 C         -2.3874078765       -1.8252965675       -0.7453135540
 C         -3.6157292879       -2.2990409129       -1.1662915897
 C         -4.7125662262       -2.3296118076       -0.3088225647
 C         -4.6009994790       -1.9204298445        1.0091871618
 C         -3.3799077296       -1.4388399230        1.4514735598
 C         -2.9018657563       -0.9649984241        2.7233039114
 C         -3.4941296090       -0.8001054085        3.9652581290
 C         -2.7334758053       -0.2774035412        4.9974792443
 C         -1.4063186564        0.0950305999        4.7961492877
 C         -0.7943671860       -0.0594694525        3.5660329829
 C         -1.5450082908       -0.6078172161        2.5336473257
 C         -0.0273697145        0.4470313420       -0.5459990968
 N         -1.2269110893        0.8466287894       -1.1226130480
 C         -1.5573939520        0.6433118611       -2.4493095585
 C         -0.7813127701        0.1324336971       -3.4827625397
 C         -1.3730293877       -0.0112385802       -4.7240505089
 C         -2.7068878598        0.3335097634       -4.9352442908
 C         -3.4943845111        0.8127785140       -3.9019364008
 C         -2.9234373033        0.9657614640       -2.6483359119
 C         -3.4294680219        1.3979143551       -1.3743097310
 C         -4.6714632622        1.8239918549       -0.9330620676
 C         -4.8075949379        2.2114784812        0.3892842173
 C         -3.7141003939        2.2186148934        1.2533540902
 C         -2.4665734791        1.7964185246        0.8352400585
 C         -2.3398967812        1.3352949671       -0.4694370416
 C          1.1909395123        0.8519235735       -1.1183337051
 C          2.3608013555        0.4682249416       -0.5429118049
 S          4.0218087250        0.8072071605       -1.0189332876
 O          4.3888409916        2.1796619752       -0.7934362622
 O          4.3125912044        0.2855508460       -2.3290683046
 H          6.0297427698       -2.2070975428       -0.9266609833
 H          5.8020700609       -2.5357192374        0.7986462045
 H          7.4167341743       -2.1660590457        0.1751757914
 H          7.9434502031        0.2047623076       -0.5712244240
 H          6.5781389670        0.1255064757       -1.6972076806
 H          6.6764908860        1.4425641736       -0.5328198293
 H          6.0000360318       -0.6609544518        2.4721345286
 H          6.3412934092        0.9877942989        1.9230484269
 H          7.6116302805       -0.2451916746        1.8645320587
 H          1.2220759050       -1.4400874719        2.0441554685
 H         -1.5332242670       -1.8356582440       -1.4043613952
 H         -3.7218632501       -2.6579846729       -2.1785043461
 H         -5.6583366696       -2.6986317287       -0.6748271164
 H         -5.4436659175       -1.9772711262        1.6806981894
 H         -4.5277460686       -1.0684681162        4.1197075275
 H         -3.1752199033       -0.1460246250        5.9734915473
 H         -0.8433390707        0.5148523253        5.6155908758
 H          0.2306704992        0.2409408094        3.4138202009
 H          0.2477161411       -0.1512484407       -3.3247640981
 H         -0.7892119996       -0.4007628755       -5.5437569677
 H         -3.1322418234        0.2128690870       -5.9198806514
 H         -4.5326253928        1.0573735312       -4.0648517789
 H         -5.5119750049        1.8553311392       -1.6090111934
 H         -5.7699746879        2.5363028296        0.7538429658
 H         -3.8397578755        2.5661388024        2.2672378262
 H         -1.6163351602        1.8374172325        1.4981665794
 H          1.1918410169        1.5078166504       -1.9743112929
