72
 energy: -114.833019961101 gnorm: 0.000118027063 xtb: 6.7.1 (edcfbbe)
N           -0.00062886565920       -1.03700326982222       -0.00137055068483
C           -0.00045464387088        0.12378321023187        0.00165464625315
C           -0.00043240463616        1.50299992373299        0.00494053800304
C           -1.23386317788021        2.24432723109236       -0.04401751679776
C           -2.53563639576402        1.59715342146314       -0.01713495608188
C           -3.57553160886282        2.05594969163053       -0.83564598412027
C           -4.80328644273361        1.43470481506508       -0.83623895855654
C           -5.03521650091435        0.33816925633671       -0.00315063614818
N           -6.27388215969252       -0.30849541992283       -0.00972112366837
C           -7.50870534421117        0.30411934521280        0.06152184292119
C           -7.82258482419853        1.64868538913670        0.20773552215315
C           -9.15877061660475        1.99559795480345        0.27940501296099
C          -10.16378165416175        1.03351400232976        0.22003841812280
C           -9.85686552669350       -0.30985390798696        0.10555291163561
C           -8.52310719067929       -0.68187728110521        0.03068341024033
C           -7.85453856667737       -1.95137414066714       -0.06700819030224
C           -8.30326237818544       -3.26101134472689       -0.15119151818010
C           -7.36873124648996       -4.27387474750567       -0.26297740379945
C           -6.00610255712637       -3.99006676883801       -0.31069615080481
C           -5.53496433293814       -2.69300133034886       -0.22952436854458
C           -6.46756971992960       -1.67433722682420       -0.08632946340357
C           -4.01461159764197       -0.10835838878999        0.83872240947796
C           -2.78736073941983        0.51293702886628        0.83221562625315
C           -1.15641324263351        3.61996028679148       -0.02124572032172
N           -0.00089568125153        4.27626290526144        0.01415690967647
C            1.15459838523196        3.62036957207033        0.04515305874499
C            1.23305577188675        2.24449710118517        0.05824395663197
C            2.53494261991623        1.59851738330847        0.02497629261474
C            2.78516974993063        0.51812710017332       -0.82993522811712
C            4.01279651733050       -0.10214574733836       -0.84281858809542
C            5.03573015618142        0.34161023877043       -0.00219120224153
N            6.27501917408541       -0.30375776988443       -0.00256650777145
C            7.50894973758433        0.31048938207230       -0.07528416511975
C            7.82089723696808        1.65606147235766       -0.21631730055644
C            9.15645592163996        2.00472086665950       -0.29119290494196
C           10.16267103797012        1.04343204018500       -0.23998270258277
C            9.85757103653094       -0.30079216318636       -0.13068631332046
C            8.52449258796834       -0.67456986785091       -0.05273834856523
C            7.85759152947076       -1.94522981776052        0.04129716720498
C            8.30795823667758       -3.25476680369714        0.11768792218357
C            7.37486500729641       -4.26913356303111        0.22798517238802
C            6.01212386458226       -3.98699022111745        0.28187679301161
C            5.53936285698500       -2.69004743682000        0.20850993467057
C            6.47040530897277       -1.66973815840080        0.06682721910153
C            4.80533290756418        1.43428840501901        0.83650629549091
C            3.57711794519636        2.05441374418244        0.84248950913307
H           -3.39574612779522        2.88529874238069       -1.50395644460630
H           -5.58135868385202        1.76644411936945       -1.50761772481378
H           -7.05102967568592        2.39990200230127        0.27819203444187
H           -9.42853398144065        3.03542383107586        0.38869281556377
H          -11.19620297174631        1.34434231360598        0.27613278710926
H          -10.63587567073917       -1.05653360910989        0.07953795929403
H           -9.36011322604562       -3.47999305635889       -0.13444013566407
H           -7.69691276279361       -5.30055484598051       -0.32567015374515
H           -5.30066450599604       -4.80026490999474       -0.41748275663818
H           -4.47820962052251       -2.48335823491686       -0.28885931774938
H           -4.20313588144789       -0.92880670839358        1.51449133087201
H           -2.01449063057772        0.16930134165322        1.50156775718539
H           -2.04794503240380        4.22735581918793        0.03450630389517
H            2.04582155699972        4.22856956900900       -0.00704042395930
H            2.01067815660735        0.17689660339187       -1.49863514152868
H            4.19996313310750       -0.91941100013478       -1.52281275982604
H            7.04830983192354        2.40677613191022       -0.28048834991842
H            9.42473560092194        3.04533000788459       -0.39659936205323
H           11.19456007915488        1.35560465695884       -0.29838507827309
H           10.63745313019057       -1.04675722699283       -0.11102497767557
H            9.36496720312947       -3.47256900558058        0.09616335382821
H            7.70433228966037       -5.29575306336042        0.28465457629987
H            5.30790761213764       -4.79842340272092        0.38733543446226
H            4.48261292237196       -2.48178331444877        0.27257397250194
H            5.58516449825851        1.76365027232348        1.50701969083406
H            3.39871204827443        2.88045740363006        1.51524245278008
