  72
       -114.91548497
 N         -0.0214620113       -1.0598912105        0.1038242100
 C         -0.0108212428        0.0866634556        0.0883003382
 C         -0.0031140008        1.5023121306        0.0703887755
 C         -1.2141383084        2.2136705324        0.0539006744
 C         -2.5185152746        1.5437144375        0.0535800356
 C         -3.4987592426        1.9411714613       -0.8541692248
 C         -4.7311176015        1.3231151120       -0.8744153272
 C         -5.0201928806        0.3071860319        0.0348948963
 N         -6.2709532571       -0.3142711341        0.0207524394
 C         -7.4936484365        0.3293691811       -0.0284950464
 C         -7.7817305307        1.6860385302        0.0086575707
 C         -9.1102460996        2.0653779628       -0.0246521781
 C        -10.1345350328        1.1234167334       -0.0828216093
 C         -9.8550718051       -0.2285896974       -0.0901708813
 C         -8.5274547195       -0.6339064104       -0.0573783780
 C         -7.8887534915       -1.9203923530       -0.0303416331
 C         -8.3685330916       -3.2231043513       -0.0582442985
 C         -7.4599864002       -4.2624023148       -0.0445232086
 C         -6.0894949230       -4.0146822564       -0.0211292212
 C         -5.5880679445       -2.7270931539        0.0064851176
 C         -6.4971438224       -1.6792015894        0.0206500488
 C         -4.0502469716       -0.0791924499        0.9576766175
 C         -2.8107807820        0.5266192374        0.9594701345
 C         -1.1312303889        3.6058866074        0.0385621239
 N          0.0052060052        4.2748207255        0.0497996168
 C          1.1372287948        3.5989830536        0.0663012012
 C          1.2126113761        2.2058917584        0.0702213159
 C          2.5131041442        1.5296797119        0.0545579064
 C          2.7711727964        0.4878465582       -0.8342117549
 C          4.0096292282       -0.1184084794       -0.8646545906
 C          5.0158692249        0.2945819882        0.0064181331
 N          6.2697739770       -0.3198783959       -0.0208182197
 C          7.4884332466        0.3322747168       -0.0591652247
 C          7.7638213477        1.6895095718       -0.1415497712
 C          9.0890840097        2.0773483085       -0.1988536004
 C         10.1217364363        1.1430156428       -0.1860035515
 C          9.8530941883       -0.2101414073       -0.1325438206
 C          8.5290933497       -0.6239113282       -0.0732556462
 C          7.8994248363       -1.9145826965       -0.0341477047
 C          8.3895378650       -3.2134277243       -0.0053547815
 C          7.4893680829       -4.2581848677        0.0579365302
 C          6.1181067746       -4.0192669295        0.1092602608
 C          5.6065105690       -2.7355972524        0.0829237133
 C          6.5055621645       -1.6829236982       -0.0071438120
 C          4.7605733239        1.3322529955        0.9010536743
 C          3.5270169901        1.9486829428        0.9143478518
 H         -3.2763984628        2.7179676488       -1.5712279163
 H         -5.4710897083        1.6098735248       -1.6061291302
 H         -6.9975528717        2.4251322778        0.0750137001
 H         -9.3592942628        3.1161036664       -0.0005698717
 H        -11.1600811824        1.4602276753       -0.1115457366
 H        -10.6488192034       -0.9597324225       -0.1157193551
 H         -9.4305666193       -3.4132480791       -0.0954016812
 H         -7.8116477757       -5.2831806958       -0.0629378242
 H         -5.4016918349       -4.8471712483       -0.0283812742
 H         -4.5234541045       -2.5489145120        0.0031727996
 H         -4.2796487079       -0.8444759626        1.6831255487
 H         -2.0736829925        0.2277420662        1.6898690155
 H         -2.0319455467        4.2051662899        0.0378767961
 H          2.0411376714        4.1932473350        0.0545822409
 H          2.0073822856        0.1712148069       -1.5286636523
 H          4.2109336621       -0.9030590651       -1.5776365739
 H          6.9719127179        2.4225646071       -0.1743471112
 H          9.3283604601        3.1288186664       -0.2594390769
 H         11.1445283400        1.4863181116       -0.2298809634
 H         10.6521335613       -0.9358023101       -0.1418091596
 H          9.4532640380       -3.3963999179       -0.0270019943
 H          7.8490117547       -5.2761681737        0.0785767672
 H          5.4380489062       -4.8555126878        0.1753381977
 H          4.5425596642       -2.5636219502        0.1437332708
 H          5.5287831487        1.6388629869        1.5945978709
 H          3.3328141869        2.7430801567        1.6201830782
