72
 energy: -114.834596808649 gnorm: 0.000060947918 xtb: 6.7.1 (edcfbbe)
N           -0.01554378535562       -0.87770354842793        0.90938790692428
C           -0.00815056708975        0.26768840592646        0.71838484707401
C           -0.00290317580646        1.61509093817204        0.42996447186379
C           -1.24135200790019        2.35563749210112        0.38698703405384
C           -2.52060653562064        1.68936825303230        0.23966224006468
C           -2.64564207062223        0.55466285131445       -0.57377830259979
C           -3.84604404454728       -0.10551464386248       -0.68951985764763
C           -4.97015676975779        0.35123572720584        0.00162653271476
N           -6.18383923386256       -0.33294106404138       -0.09982287104506
C           -7.41598466168033        0.23497227302089       -0.35354110838036
C           -7.74228559733390        1.55809452537572       -0.61880743932031
C           -9.06794499982674        1.85762201860958       -0.87124378510118
C          -10.04884955661430        0.86917278177038       -0.87311555221341
C           -9.72564093525730       -0.45460620630881       -0.63873692709851
C           -8.40213942200143       -0.77920047342646       -0.38173647645028
C           -7.71936725309597       -2.01870124523359       -0.12526973811801
C           -8.14291384971446       -3.33433273277794       -0.00912415744286
C           -7.20411548265563       -4.30788271100542        0.27794709429981
C           -5.86413482111902       -3.97853145593256        0.46659057943566
C           -5.41827524810677       -2.67467999792231        0.35673059784287
C           -6.35188334253597       -1.69726035762200        0.03947407566829
C           -4.86472369788508        1.49451860661718        0.79688807703108
C           -3.66215648680486        2.15257343544986        0.90862323388020
C           -1.15852820927764        3.72931674471040        0.46372662259968
N           -0.00157885983176        4.38172360975646        0.48036274886822
C            1.15338285406880        3.72872171753324        0.46183642007283
C            1.23787415614301        2.35401116061820        0.38793764694628
C            2.51680064699802        1.68944820160267        0.24130850145276
C            2.63907044841464        0.53657328132350       -0.54785603764827
C            3.84038293960005       -0.12234174819170       -0.65963513115384
C            4.97035005908736        0.35543878866513        0.00741141019469
N            6.18668231774595       -0.32438920485540       -0.09232425516109
C            7.41066640026605        0.24399363260826       -0.38115933305000
C            7.72265611556571        1.56086847296342       -0.69095338882345
C            9.04187414714536        1.86192831520609       -0.97340314084077
C           10.02997300864339        0.88070289995229       -0.96087153280688
C            9.72063668911986       -0.43759265893963       -0.68097522477294
C            8.40378383286575       -0.76370488321316       -0.39357269308721
C            7.73390807990593       -1.99947311073936       -0.08929268181391
C            8.16845623629704       -3.30794471610717        0.06157807353521
C            7.24077738844054       -4.27838545854660        0.39226539798157
C            5.90103789506026       -3.95268078199957        0.58897770745370
C            5.44421154520385       -2.65598997445829        0.44482229643172
C            6.36650995564587       -1.68251920300754        0.08524368146014
C            4.86855322488132        1.51675405418193        0.77697182112243
C            3.66442617346516        2.17126542470885        0.88805728125291
H           -1.79039262043813        0.20042157306848       -1.12807923777093
H           -3.93209833879352       -0.96680742553420       -1.33467689331869
H           -6.98618216115973        2.32781844076097       -0.64208692218549
H           -9.34784107338681        2.88014822804677       -1.07636703360571
H          -11.07402868379802        1.14321325396965       -1.07206732896561
H          -10.48373292741576       -1.22268663065880       -0.65940952397250
H           -9.18463254935839       -3.58750013486349       -0.13525244619360
H           -7.51253075105774       -5.33853339737647        0.36940442399278
H           -5.15715021531759       -4.75761747695075        0.70883035499706
H           -4.38169413648316       -2.42776436409118        0.52653038211366
H           -5.72488928831717        1.83438780457617        1.35442209360154
H           -3.58569345120598        3.01379539205084        1.55540801694822
H           -2.04435230303663        4.34616075002073        0.42261208462756
H            2.03895797864020        4.34573528051091        0.41650855917570
H            1.78041610038340        0.16651258548556       -1.08614908944338
H            3.92285510952481       -0.99904071064874       -1.28425610384605
H            6.96020426541703        2.32393095070358       -0.72495093471058
H            9.31087299178917        2.87964287075314       -1.21396157987442
H           11.04976921581954        1.15573022141016       -1.18459896609341
H           10.48423332541210       -1.20042613484580       -0.69024986017091
H            9.21010922230869       -3.55792917132689       -0.07129232527955
H            7.55802381406795       -5.30347454172123        0.51175064874415
H            5.20321663721041       -4.72879878906670        0.86497181659501
H            4.40814456186983       -2.41072630649951        0.62019775854052
H            5.73380244773262        1.87343734109760        1.31591869647543
H            3.59194951442694        3.04555200703398        1.51744408521084
