78
 energy: -120.844038788503 gnorm: 0.000063974070 xtb: 6.7.1 (edcfbbe)
C            6.58314130738640        4.91206378545604        2.61026380909802
O            6.87445405845544        3.56260293085993        2.34756136061121
C            5.88745506633084        2.77525319505469        1.82619613008588
C            4.59462371048730        3.19737163545821        1.53952044841339
C            3.67834505946602        2.31163859376618        1.00256586550505
C            4.02231788289975        0.98719316679423        0.74807481520058
N            3.07291756473259        0.11547235456532        0.20354223414780
C            3.45256105760616       -0.92695771503633       -0.64527085345343
C            4.49898629797000       -0.76518079068500       -1.55706958495238
C            4.86058216487547       -1.79432881382241       -2.39557590763330
C            4.18311273235558       -3.01434579272142       -2.36364451105232
O            4.62421555568140       -3.96490501982793       -3.24089997540444
C            3.98408706805209       -5.21562352666031       -3.24658325767073
C            3.13369792047594       -3.17635941846667       -1.46793936409435
C            2.78013393345457       -2.14517018208775       -0.61618453347609
C            1.74896623432915        0.19114605534985        0.66707570036565
C            1.50573466459459        0.27465568305031        2.01983111474803
C            0.19860800969510        0.34182767461269        2.50616016068864
C           -0.86604677582643        0.28460312966977        1.64899810806002
C           -0.66320007215474        0.20557716517189        0.25617028984125
C           -1.74895989604276        0.19117508610128       -0.66707352731263
N           -3.07291276811914        0.11553216357806       -0.20353942438120
C           -3.45257852355410       -0.92688379685111        0.64528131958804
C           -2.78017728139772       -2.14511080296980        0.61620457690109
C           -3.13376663100572       -3.17628776882102        1.46796371243329
C           -4.18318161336279       -3.01424683304212        2.36366367210964
O           -4.62430667475019       -3.96479081610447        3.24092433645445
C           -3.98420774738491       -5.21552437883785        3.24661419389299
C           -4.86062234298829       -1.79421383766518        2.39558867182939
C           -4.49900160013728       -0.76507838661023        1.55707757907813
C           -4.02229479777812        0.98726812953920       -0.74807957528824
C           -5.31767369424421        0.56455819657022       -1.05161462304752
C           -6.23490056003262        1.44704698390374       -1.57573307874244
C           -5.88739299086561        2.77535807090748       -1.82621883880984
O           -6.87437521827336        3.56272459060559       -2.34759069796181
C           -6.58303441163902        4.91217765065524       -2.61030202117555
C           -4.59455339808492        3.19745206821351       -1.53954445350842
C           -3.67829419949008        2.31170444330989       -1.00258072534302
C           -1.50572671807148        0.27466733620330       -2.01982986979266
C           -0.19859865477614        0.34180414706181       -2.50615988326677
C            0.86605514366642        0.28456784269617       -1.64899743324961
C            0.66320693818562        0.20556097109493       -0.25616857355800
C            5.31768831920389        0.56445863662788        1.05161152969415
C            6.23493417812380        1.44693250439779        1.57572179808978
H            7.50150326101450        5.34014526347270        3.00927844488359
H            5.78469730801286        5.01555578190621        3.35278444272612
H            6.30157837645251        5.44889240533648        1.69809175214414
H            4.28666566217820        4.21504129945172        1.72084181911022
H            2.67798660154877        2.65112510587559        0.77721207006816
H            5.02279622275781        0.17782040706525       -1.60495304778942
H            5.66858486503772       -1.67515037513245       -3.09980908525101
H            2.92450198036757       -5.12558668129539       -3.50885761262326
H            4.49330889426548       -5.80462620682117       -4.00796424986045
H            4.07628476409043       -5.72038009436813       -2.27888314695980
H            2.58521091589305       -4.10349557855417       -1.41318053810061
H            1.96874451601814       -2.28833915948196        0.08208817122097
H            2.33971435285626        0.28883747328524        2.70655288703935
H            0.03465259610734        0.42178496566747        3.57048096877490
H           -1.87114426316425        0.32553318988105        2.03715416277850
H           -1.96878920507949       -2.28830158245892       -0.08206513512162
H           -2.58529691138438       -4.10343466015463        1.41321479117725
H           -4.07641414742316       -5.72028162043839        2.27891531869035
H           -4.49344680714529       -5.80451234403592        4.00799503301572
H           -2.92462135769936       -5.12551213485568        3.50889217238623
H           -5.66862584129887       -1.67501461415269        3.09981725370141
H           -5.02279504085715        0.17793240682578        1.60495024024497
H           -5.59865476034697       -0.46309502080004       -0.87684594213399
H           -7.23733963023118        1.12684323319814       -1.81157681888185
H           -6.30146153463192        5.44900669265026       -1.69813331050275
H           -7.50138704088511        5.34027553723701       -3.00932051974783
H           -5.78458743903175        5.01564835900368       -3.35282240046693
H           -4.28657485974084        4.21511474984184       -1.72087028910114
H           -2.67792949122474        2.65117237925824       -0.77722660494082
H           -2.33970629155862        0.28886108471170       -2.70655140194005
H           -0.03464198536925        0.42176120899454       -3.57048047864422
H            1.87115309652566        0.32548535978076       -2.03715328424479
H            5.59864893244389       -0.46320089254892        0.87684713341892
H            7.23736796344848        1.12671075053335        1.81156349126272
