78
 energy: -120.767846510590 gnorm: 0.000052178683 xtb: 6.7.1 (edcfbbe)
C            6.95324573872521        4.62256866011942       -2.45649563053841
O            7.16812078677785        3.29028284781303       -2.06243260872114
C            6.11536291323748        2.58192454190607       -1.56293120355953
C            6.38783028308522        1.25998283603580       -1.19936616690842
C            5.40130903005486        0.45263919206067       -0.68534516664880
C            4.10273653520088        0.94379923036578       -0.50755799802712
N            3.08099504779675        0.14210776226827       -0.00603813162057
C            3.34967704136573       -0.86675101826393        0.91746950616511
C            2.61040563164293       -2.04897809629166        0.90291698847971
C            2.84302608163523       -3.04619326004685        1.82986175919320
C            3.83043640192799       -2.88680713400791        2.79651612627428
O            4.14736110490967       -3.80408731126940        3.75519327462758
C            3.41839395408227       -5.00516337732735        3.79944477146440
C            4.57421776287076       -1.70401631976219        2.81457829150932
C            4.33633410181544       -0.70873031172691        1.89632487861393
C            1.79405155166007        0.28876097192924       -0.53186560046784
C            1.65561560594597        0.39694223546242       -1.94265178580085
C            0.41849068176734        0.46848844801070       -2.50620567226212
C           -0.73800170268981        0.42041494140940       -1.70095649981472
C           -0.64614876307235        0.31221419447425       -0.31094289079859
C           -1.79403261260709        0.27452637311645        0.52988891693744
N           -3.08017836499965        0.12433713094377        0.00306454184915
C           -4.10640827155228        0.91620281059696        0.51111229280528
C           -3.84572446426365        2.23391412102939        0.88959549517314
C           -4.83938160308505        3.03432232740891        1.41825122246743
C           -6.12774127242925        2.53426370321663        1.58076755689804
O           -7.18413789953427        3.23243155259345        2.08688513375233
C           -6.97675524223170        4.56288148669451        2.49105196127070
C           -6.39259532357684        1.21340872999984        1.20774143992997
C           -5.40178211848586        0.41588335264781        0.68668750923049
C           -3.34351537822516       -0.87970801695776       -0.92719809368454
C           -2.59712354713804       -2.05754558778987       -0.92150757142808
C           -2.82502143528406       -3.04996955578098       -1.85474615983828
C           -3.81472133170961       -2.89015633402038       -2.81898756751178
O           -4.12773100373710       -3.80315540087266       -3.78302887709665
C           -3.39296873832933       -5.00038870231503       -3.83491805013847
C           -4.56537179957246       -1.71161024524361       -2.82842725328833
C           -4.33217402425255       -0.72100077735587       -1.90393165304069
C           -1.65615844268674        0.37322539645689        1.94143448021654
C           -0.41946184291935        0.44791863630249        2.50550714296079
C            0.73725284319974        0.41247678651812        1.69994554789589
C            0.64598803773959        0.31372953631030        0.30919404224755
C            3.83440986990233        2.26259341625399       -0.87679485564929
C            4.82377199751318        3.07289000447512       -1.39839196231274
H            7.91442729376088        4.98067865582655       -2.82212159395854
H            6.63283931762394        5.24511884502702       -1.61452960319170
H            6.21294997394573        4.69051253176591       -3.26048098870860
H            7.38942973059834        0.88681981468595       -1.34275904795744
H            5.62294486606193       -0.57264694877683       -0.42997559370573
H            1.84907028602824       -2.18477272248377        0.14966105897886
H            2.25056956333851       -3.94620360091204        1.78267788425230
H            3.82842802020777       -5.56866176972678        4.63620519335772
H            2.35276188176725       -4.82323901383796        3.97377463392860
H            3.54170138016977       -5.58567386337812        2.87898537594514
H            5.33138173386125       -1.58715318287796        3.57351672940404
H            4.90304666562474        0.20951533925177        1.93836595349264
H            2.54937567356486        0.38035785756047       -2.54888767790714
H            0.30661882605156        0.53413354172013       -3.57811362547125
H           -1.70348985911379        0.48541393877568       -2.17635954746340
H           -2.85047533171481        2.63099234631327        0.75717023961346
H           -4.59714847107435        4.04866955734961        1.69329824950193
H           -6.23568898245883        4.62901905508128        3.29447931992797
H           -7.93953885531446        4.91229084267501        2.86086051980332
H           -6.66137855458788        5.19393044118250        1.65352400896083
H           -7.39174066189586        0.83310855874068        1.34950073480447
H           -5.61749416027417       -0.60882587049420        0.42403033618591
H           -1.83399599656357       -2.19379650770700       -0.17015303131013
H           -2.22709657015160       -3.94668704568720       -1.81431246515202
H           -2.32848620161623       -4.81233421687494       -4.00975388695126
H           -3.80144694447816       -5.56129235090327       -4.67417730258797
H           -3.51212806717096       -5.58651989838133       -2.91747843644750
H           -5.32422078772440       -1.59424344424017       -3.58560487052694
H           -4.90437328554376        0.19412265383864       -1.93920952704534
H           -2.54978036751555        0.34701408566750        2.54753271902097
H           -0.30793650374637        0.50648358947731        3.57786006677047
H            1.70233845616977        0.47971927945622        2.17585195355396
H            2.83663127899927        2.65265489754007       -0.74256676100025
H            4.57567821173359        4.08773968661223       -1.66627033663033
