  78
       -120.76377108
 C          6.9531061747        4.6155974064       -2.4582360896
 O          7.1640938024        3.2792755002       -2.0756170953
 C          6.1123948323        2.5736508518       -1.5706597152
 C          6.3796048931        1.2460866055       -1.2228180465
 C          5.3933523424        0.4408000125       -0.7056955580
 C          4.0996607884        0.9391344302       -0.5099507814
 N          3.0763490846        0.1394016213       -0.0094192323
 C          3.3422404464       -0.8750434384        0.9071920152
 C          2.5852910794       -2.0470767975        0.8988525800
 C          2.8149643506       -3.0500392760        1.8199283281
 C          3.8162614683       -2.9077379585        2.7751015361
 O          4.1320672009       -3.8324219503        3.7267417229
 C          3.3870577070       -5.0234150156        3.7763565475
 C          4.5769183807       -1.7351590220        2.7878085738
 C          4.3421889157       -0.7339105929        1.8755411053
 C          1.7894436572        0.2964210633       -0.5305589925
 C          1.6455743003        0.4139396575       -1.9370594623
 C          0.4050303247        0.4931239535       -2.4962791965
 C         -0.7471257634        0.4407661303       -1.6876120472
 C         -0.6499919107        0.3264802917       -0.3000731867
 C         -1.7962145476        0.2859032852        0.5465165259
 N         -3.0816090789        0.1251919037        0.0226995440
 C         -4.1107109093        0.9171910323        0.5232508826
 C         -3.8555885266        2.2406007010        0.8871253712
 C         -4.8525725885        3.0425308098        1.4061666417
 C         -6.1387014834        2.5381571436        1.5759879118
 O         -7.1979665139        3.2376689445        2.0737601611
 C         -6.9967335486        4.5739833632        2.4613527890
 C         -6.3974683313        1.2111256855        1.2200167539
 C         -5.4037430232        0.4124362000        0.7068313864
 C         -3.3375174516       -0.8826772555       -0.9041341069
 C         -2.5718938761       -2.0491293872       -0.9034013989
 C         -2.7873238335       -3.0433879889       -1.8371772933
 C         -3.7832619428       -2.8981625391       -2.7974725935
 O         -4.0839472168       -3.8138049305       -3.7627090836
 C         -3.3225667825       -4.9936645129       -3.8266896750
 C         -4.5542709846       -1.7323214123       -2.8010249766
 C         -4.3333535564       -0.7393500378       -1.8763498801
 C         -1.6533012173        0.3926383768        1.9539153420
 C         -0.4129212987        0.4695318795        2.5140336067
 C          0.7397658960        0.4261286425        1.7054173217
 C          0.6434022006        0.3252600025        0.3167152245
 C          3.8365883875        2.2637358750       -0.8636899476
 C          4.8259496026        3.0723408689       -1.3867165053
 H          7.9113343257        4.9690993611       -2.8357324535
 H          6.6497464268        5.2350933446       -1.6077076292
 H          6.2016527935        4.6938741474       -3.2507847153
 H          7.3768661292        0.8674316233       -1.3813996626
 H          5.6100365451       -0.5885826969       -0.4629921379
 H          1.8142629404       -2.1703100194        0.1534545965
 H          2.2093373652       -3.9415169896        1.7774323313
 H          3.7988850492       -5.5947425984        4.6068266983
 H          2.3261425019       -4.8272562038        3.9634427333
 H          3.4917057037       -5.6030267050        2.8530639080
 H          5.3446205754       -1.6314449450        3.5380398516
 H          4.9215845990        0.1765172310        1.9143800894
 H          2.5361943684        0.3978950146       -2.5481318941
 H          0.2902927068        0.5661410924       -3.5673747822
 H         -1.7145787817        0.5073702630       -2.1590682641
 H         -2.8622439763        2.6403047109        0.7484782599
 H         -4.6154819037        4.0615449807        1.6678151010
 H         -6.2538600561        4.6538359412        3.2618536649
 H         -7.9604265503        4.9227106409        2.8293643363
 H         -6.6867305859        5.1964329842        1.6153531953
 H         -7.3945160732        0.8277533489        1.3682889329
 H         -5.6142300507       -0.6165954464        0.4572374049
 H         -1.8045135091       -2.1745267244       -0.1545840460
 H         -2.1745951528       -3.9303106091       -1.8008121719
 H         -2.2634108519       -4.7800811913       -4.0042877644
 H         -3.7217494643       -5.5574109057       -4.6685252088
 H         -3.4244772082       -5.5892319396       -2.9132849834
 H         -5.3183754071       -1.6265914882       -3.5546010703
 H         -4.9200102487        0.1666664612       -1.9088739631
 H         -2.5441287105        0.3698494797        2.5644875248
 H         -0.2986509665        0.5340466203        3.5857380343
 H          1.7069413434        0.4898504294        2.1778641181
 H          2.8428670527        2.6586839557       -0.7147987400
 H          4.5826604205        4.0918418829       -1.6408764033
