78
 energy: -120.844164323777 gnorm: 0.000042764916 xtb: 6.7.1 (edcfbbe)
C            6.90124142362406        4.77640219957729       -2.28701481147107
O            7.11719802361420        3.41194481103874       -2.02877974003109
C            6.07448964679046        2.66833014516345       -1.55353759886482
C            6.34567928077456        1.32009521091110       -1.31567037210203
C            5.36731586307808        0.47733405011140       -0.83890239924254
C            4.08513514860512        0.96039353395676       -0.57152345938907
N            3.07456642324317        0.12734463580043       -0.07801634337979
C            3.37589415205079       -0.94635449843948        0.76405380079910
C            2.65556235326290       -2.14005707172596        0.67946871718941
C            2.93789653181348       -3.18876649933905        1.52457700137794
C            3.95622290392450       -3.08812472325570        2.47302431345147
O            4.15842638444311       -4.19237329639397        3.25251623770737
C            5.17436913469936       -4.14763394964987        4.22216996153308
C            4.67904286758517       -1.90423696358162        2.55926881073156
C            4.38457297126123       -0.84621220158143        1.71847541496729
C            1.77645925452945        0.26452286821417       -0.59554351095523
C            1.59599501269165        0.40922357737557       -1.95306438835434
C            0.31400467013926        0.53201434155314       -2.49210267792893
C           -0.78914827779666        0.45764404904131       -1.68650821524697
C           -0.65128137335222        0.30872899927519       -0.29154181987485
C           -1.77802627910607        0.25493121750782        0.58047869282407
N           -3.07742987927788        0.18865521804511        0.05396266219561
C           -4.07659650400626        0.98495169779853        0.62495482156768
C           -3.78778700126880        2.30033473707990        0.99578237031746
C           -4.75772513478333        3.09823896896126        1.55722445418336
C           -6.05133147826780        2.61379306137570        1.75889875933526
O           -6.93766385503769        3.49223674378288        2.31468170678742
C           -8.25452447928226        3.05779154755349        2.54273753837272
C           -6.34396594334669        1.30586730157587        1.39206213142038
C           -5.36338144646567        0.50176724940932        0.83837158723579
C           -3.39676589021469       -0.79984260896633       -0.88176137121966
C           -2.71002809993550       -2.01012919168802       -0.89921591083893
C           -3.00046838545468       -2.98197289691529       -1.83991478615215
C           -4.00061230462349       -2.76795143321588       -2.78009380318980
O           -4.37628831194863       -3.65736090817967       -3.74710966222017
C           -3.70541344343063       -4.89019926608038       -3.81623653435712
C           -4.69560087382458       -1.55747383755630       -2.76254028431268
C           -4.39593513766195       -0.58656852846518       -1.83481387351614
C           -1.59487641528609        0.28186559816447        1.94518509009034
C           -0.31088459694880        0.32918809690168        2.49121860057866
C            0.79095001947289        0.29646573227527        1.68122890029977
C            0.65058830638276        0.26963658293351        0.27883857841765
C            3.81798833520947        2.30507480409548       -0.81158381698728
C            4.79588138911860        3.15149392900782       -1.30133225150598
H            7.85174436915487        5.16158703156206       -2.65315838982219
H            6.61797192981902        5.31902119453070       -1.37882999101674
H            6.13263475383481        4.92543130803112       -3.05283049617181
H            7.33790517245068        0.95277960072700       -1.52474423932712
H            5.58894557161046       -0.56655096419903       -0.67496791875000
H            1.87156688770199       -2.23751911242943       -0.05640214846645
H            2.38423366149782       -4.11220267177074        1.46375397280342
H            5.15966997398694       -5.12091741660005        4.71050885223690
H            6.15831159992351       -3.98670272689896        3.76873156929334
H            4.98690629815146       -3.36752473478840        4.96772840303093
H            5.47008093864064       -1.78475861899494        3.28276467084293
H            4.94403400767897        0.07346229824432        1.80712413726641
H            2.45926578862163        0.42761155645427       -2.60245272136147
H            0.19975016009214        0.66521130218797       -3.55758557933177
H           -1.77417863079438        0.53873075059250       -2.11715268097003
H           -2.79224324448171        2.68793246304978        0.83879275637151
H           -4.54073005782462        4.11476768732296        1.84454671994435
H           -8.75226752201589        2.77165610551291        1.61005685160630
H           -8.77454966939216        3.90870347863860        2.98026181930361
H           -8.28638774618687        2.21668284876316        3.24349010192523
H           -7.32930260719881        0.89246990257893        1.53925636172394
H           -5.60178949991889       -0.51708684171674        0.57122244314826
H           -1.93660087638454       -2.19387603015108       -0.16823056310368
H           -2.44204168417307       -3.90446759642287       -1.81951785008424
H           -4.15708753609007       -5.42578501451769       -4.64994664346495
H           -3.83774825597881       -5.47368416520693       -2.89884643860341
H           -2.63574254895427       -4.75694182962130       -4.00976428915061
H           -5.46580681446040       -1.39800815135476       -3.50043625000476
H           -4.93055342653625        0.35164132266930       -1.84430653768979
H           -2.45753346724338        0.26597277856365        2.59531447106348
H           -0.19505162870473        0.36967257290436        3.56402446614984
H            1.77754621390164        0.31661037662139        2.11546768226974
H            2.82883150518737        2.69125129197340       -0.61386248940184
H            4.54640052632015        4.18652581193639       -1.47393084428000
