  106
       -171.29270586
 C         -8.2269690325       -1.5349255382        0.9548405325
 C         -8.2744577131       -0.2618009713        0.4081591878
 C         -7.1258675593        0.5010077715        0.3272612705
 C         -5.9171249459       -0.0145110926        0.7862206974
 C         -4.6868800895        0.7577888808        0.6307087904
 N         -4.7630283167        2.0763474666        0.4914505094
 C         -3.5961094543        2.7241143751        0.3341402206
 C         -3.6229686076        4.1805385119        0.2690271549
 C         -4.8210174893        4.8687355421        0.4611439170
 C         -4.8422215059        6.2482155215        0.4030863309
 C         -3.6747895061        6.9533687613        0.1530912403
 C         -2.4810448623        6.2735189388       -0.0383889273
 C         -2.4506467200        4.8947992990        0.0188040440
 N         -2.4298762879        2.1174915331        0.2124408009
 C         -2.4356338683        0.7840830993        0.3133387207
 C         -1.2079076842        0.0719940710        0.0703727468
 C          0.0046012514        0.7345899143        0.1860289956
 C          1.2210204514        0.0763068520        0.0726995896
 C          2.4445080810        0.7962749113        0.3064375606
 N          2.4233952066        2.1311543315        0.2187215376
 C          3.5824713275        2.7512904024        0.3316897844
 C          3.5892085577        4.2085149737        0.2814589308
 C          4.7840722607        4.9109399159        0.4379118594
 C          4.7842969080        6.2912116445        0.3952295669
 C          3.5990781055        6.9829606591        0.1973663171
 C          2.4084119046        6.2888848849        0.0416866804
 C          2.3990067581        4.9093879189        0.0826850992
 N          4.7592449609        2.1157941723        0.4696672138
 C          4.7001269503        0.7950013765        0.5969577001
 C          5.9411103845        0.0369736116        0.7375165103
 C          5.9188200463       -1.2397888050        1.2921615244
 C          7.0820341457       -1.9800014640        1.3673812010
 C          8.2713272426       -1.4548062690        0.8870719264
 C          8.2992047586       -0.1798579001        0.3436167833
 C          7.1402998703        0.5684377060        0.2717376651
 N          3.5706921266        0.1121081365        0.5697517039
 C          1.2173993304       -1.3174861397       -0.2360816128
 N          2.4169180656       -2.0121589376       -0.4398645276
 C          3.3925436223       -1.6828413305       -1.3605722225
 C          3.4032362232       -0.6666876007       -2.3054462035
 C          4.5357708080       -0.5279403995       -3.0854248345
 C          5.6223450564       -1.3878791697       -2.9472777946
 C          5.5986654207       -2.4274224593       -2.0358429220
 C          4.4747084653       -2.5841335131       -1.2393597713
 C          4.1128179629       -3.5153472243       -0.2048800636
 C          4.7454138220       -4.6088062310        0.3659533119
 C          4.1093269820       -5.2792509309        1.3953758889
 C          2.8633796485       -4.8652594812        1.8639649972
 C          2.2115090457       -3.7816023304        1.3088413855
 C          2.8365492705       -3.1152028658        0.2625466526
 C          0.0093154271       -1.9812335504       -0.3831978862
 C         -1.2017247026       -1.3201090750       -0.2477613607
 N         -2.4002815327       -2.0075084109       -0.4759016763
 C         -3.3751138599       -1.6380869501       -1.3829787252
 C         -3.3754367356       -0.5960366959       -2.2996089582
 C         -4.5104935500       -0.4174107041       -3.0678158879
 C         -5.6100641718       -1.2632246397       -2.9466152492
 C         -5.5963256716       -2.3296571599       -2.0665990459
 C         -4.4695829755       -2.5268368842       -1.2832103579
 C         -4.1152118447       -3.4951602365       -0.2810558012
 C         -4.7613313538       -4.5982238476        0.2547443538
 C         -4.1292858582       -5.3143838659        1.2553975383
 C         -2.8746332943       -4.9349066515        1.7295352995
 C         -2.2105142211       -3.8406612804        1.2104191418
 C         -2.8310759831       -3.1281409556        0.1922691318
 N         -3.5492621604        0.0887405884        0.5978937387
 C         -5.8747466035       -1.2895417367        1.3434919304
 C         -7.0283845185       -2.0437341090        1.4287913919
 H         -9.1269047094       -2.1295310519        1.0148942028
 H         -9.2109861189        0.1335853282        0.0432144980
 H         -7.1403809341        1.4918304391       -0.1004267265
 H         -5.7192211177        4.3041385000        0.6583222663
 H         -5.7709210088        6.7794259481        0.5534508924
 H         -3.6950364254        8.0325559717        0.1082648597
 H         -1.5733848275        6.8252720022       -0.2350253913
 H         -1.5316177800        4.3497518642       -0.1307875570
 H          0.0022649631        1.7853161012        0.4315152315
 H          5.6966213179        4.3567289792        0.5956001333
 H          5.7106283966        6.8337286535        0.5176447208
 H          3.6031080514        8.0627769676        0.1651314079
 H          1.4861578620        6.8300956648       -0.1110776590
 H          1.4823261737        4.3533953874       -0.0378588180
 H          4.9861252951       -1.6331443456        1.6674093660
 H          7.0600554821       -2.9704226642        1.7981142437
 H          9.1792665815       -2.0381745310        0.9393843182
 H          9.2286105121        0.2285729866       -0.0256663746
 H          7.1405825780        1.5606325357       -0.1530341860
 H          2.5620684642        0.0017565640       -2.4162920100
 H          4.5786509828        0.2652768208       -3.8168761302
 H          6.4931976042       -1.2409932695       -3.5682987934
 H          6.4385278593       -3.0983842991       -1.9379857640
 H          5.7160437549       -4.9242985920        0.0143801714
 H          4.5859230422       -6.1332478405        1.8533842725
 H          2.4009213727       -5.4017511601        2.6790159371
 H          1.2541538238       -3.4523266905        1.6825862664
 H          0.0125669953       -3.0273358547       -0.6579279268
 H         -2.5247697184        0.0623047611       -2.3983211471
 H         -4.5450786893        0.3971814908       -3.7758523382
 H         -6.4826903811       -1.0840204190       -3.5566241743
 H         -6.4453917577       -2.9908330522       -1.9822876751
 H         -5.7382892818       -4.8860799669       -0.1028115198
 H         -4.6153483840       -6.1777917273        1.6849240624
 H         -2.4143715777       -5.5076614811        2.5209184482
 H         -1.2458022146       -3.5413887920        1.5902275132
 H         -4.9345911226       -1.6704143339        1.7133770445
 H         -6.9916467393       -3.0317516112        1.8645883940
